REMARK SMILES CCn1cc(-c2ccnc3[nH]c(-c4cccc(CN(C)C)c4)cc23)c(-c2ccc(NC(=O)N(C)C)cc2)n1
REMARK SMILES IDX 6 1 7 2 8 3 9 4 10 5 11 6 12 7 23 8 24 9 5 10 3 11 4 12
REMARK SMILES IDX 38 13 25 14 2 15 1 16 26 17 27 18 37 19 28 20 36 21 29 22
REMARK SMILES IDX 30 23 31 24 32 25 33 26 34 27 35 28 13 29 14 30 22 31 15 32
REMARK SMILES IDX 17 33 16 34 18 35 19 36 20 37 21 38
REMARK H PARENT
REMARK Flexibility Score: inf
ROOT
ATOM      1  C   UNL     1       0.029   0.846   0.363  1.00  0.00    -0.002 A 
ATOM      2  C   UNL     1       0.416   2.169   0.243  1.00  0.00    -0.035 A 
ATOM      3  C   UNL     1      -0.358   2.994  -0.558  1.00  0.00     0.030 A 
ATOM      4  N   UNL     1      -1.369   2.480  -1.288  1.00  0.00    -0.239 NA
ATOM      5  C   UNL     1      -1.942   1.326  -0.868  1.00  0.00     0.138 A 
ATOM      6  N   UNL     1      -3.094   0.678  -1.169  1.00  0.00    -0.339 N 
ATOM      7  C   UNL     1      -3.335  -0.248  -0.209  1.00  0.00     0.048 A 
ATOM      8  C   UNL     1      -2.072  -0.551   0.284  1.00  0.00    -0.026 A 
ATOM      9  C   UNL     1      -1.169   0.398  -0.182  1.00  0.00     0.027 A 
ENDROOT
BRANCH   1  10
ATOM     10  C   UNL     1       0.972  -0.207   0.757  1.00  0.00     0.029 A 
ATOM     11  N   UNL     1       1.784  -2.164   1.327  1.00  0.00    -0.272 N 
ATOM     12  C   UNL     1       0.761  -1.306   1.560  1.00  0.00     0.033 A 
ATOM     13  N   UNL     1       2.589  -1.611   0.433  1.00  0.00    -0.172 NA
ATOM     14  C   UNL     1       2.178  -0.377   0.105  1.00  0.00     0.100 A 
BRANCH  11  15
ATOM     15  C   UNL     1       1.791  -3.605   1.562  1.00  0.00     0.038 C 
ATOM     16  C   UNL     1       1.352  -4.349   0.321  1.00  0.00    -0.045 C 
ENDBRANCH  11  15
BRANCH  14  17
ATOM     17  C   UNL     1       3.020   0.641  -0.539  1.00  0.00     0.003 A 
ATOM     18  C   UNL     1       3.525   0.438  -1.818  1.00  0.00    -0.051 A 
ATOM     19  C   UNL     1       3.691   1.608   0.200  1.00  0.00    -0.051 A 
ATOM     20  C   UNL     1       4.802   0.858  -2.173  1.00  0.00    -0.038 A 
ATOM     21  C   UNL     1       5.011   1.930  -0.096  1.00  0.00    -0.038 A 
ATOM     22  C   UNL     1       5.633   1.431  -1.234  1.00  0.00     0.042 A 
BRANCH  22  23
ATOM     23  N   UNL     1       7.027   1.113  -1.135  1.00  0.00    -0.308 N 
ATOM     24  C   UNL     1       7.520  -0.214  -1.139  1.00  0.00     0.321 C 
ATOM     25  O   UNL     1       6.858  -1.049  -1.827  1.00  0.00    -0.248 OA
ATOM     26  N   UNL     1       8.370  -0.742  -0.115  1.00  0.00    -0.331 N 
ATOM     27  C   UNL     1       9.220   0.189   0.622  1.00  0.00     0.011 C 
ATOM     28  C   UNL     1       7.796  -1.827   0.677  1.00  0.00     0.011 C 
ENDBRANCH  22  23
ENDBRANCH  14  17
ENDBRANCH   1  10
BRANCH   7  29
ATOM     29  C   UNL     1      -4.623  -0.618   0.388  1.00  0.00    -0.002 A 
ATOM     30  C   UNL     1      -4.728  -0.778   1.758  1.00  0.00    -0.053 A 
ATOM     31  C   UNL     1      -5.772  -0.195  -0.263  1.00  0.00    -0.048 A 
ATOM     32  C   UNL     1      -5.873  -0.418   2.450  1.00  0.00    -0.061 A 
ATOM     33  C   UNL     1      -6.965   0.024   0.413  1.00  0.00    -0.033 A 
ATOM     34  C   UNL     1      -6.935   0.183   1.789  1.00  0.00    -0.058 A 
BRANCH  33  35
ATOM     35  C   UNL     1      -8.132   0.514  -0.363  1.00  0.00     0.023 C 
BRANCH  35  36
ATOM     36  N   UNL     1      -9.149  -0.517  -0.511  1.00  0.00    -0.305 NA
ATOM     37  C   UNL     1      -8.568  -1.799  -0.140  1.00  0.00    -0.013 C 
ATOM     38  C   UNL     1     -10.260  -0.201   0.375  1.00  0.00    -0.013 C 
ENDBRANCH  35  36
ENDBRANCH  33  35
ENDBRANCH   7  29
TORSDOF 7

