
     RDKit          3D

 26 28  0  0  0  0  0  0  0  0999 V2000
    2.5405   -1.9538    1.7012 C   0  0  0  0  0  0  0  0  0  0  0  0
    1.8872   -0.7413    1.1161 C   0  0  0  0  0  0  0  0  0  0  0  0
    0.6157   -0.2612    1.4053 C   0  0  0  0  0  0  0  0  0  0  0  0
    0.0740    0.3370    0.2754 C   0  0  0  0  0  0  0  0  0  0  0  0
   -1.3438    0.5443   -0.0474 C   0  0  0  0  0  0  0  0  0  0  0  0
   -1.8576   -0.3477   -0.7880 O   0  0  0  0  0  0  0  0  0  0  0  0
   -2.1842    1.2912    0.9309 C   0  0  0  0  0  0  0  0  0  0  0  0
   -3.5816    0.9790    0.7710 N   0  0  0  0  0  0  0  0  0  0  0  0
   -3.9456   -0.3125    0.9499 C   0  0  0  0  0  0  0  0  0  0  0  0
   -5.1548   -0.8083    0.4843 C   0  0  0  0  0  0  0  0  0  0  0  0
   -5.3661   -2.2250    0.2910 C   0  0  0  0  0  0  0  0  0  0  0  0
   -5.3870   -3.2615   -0.2387 N   0  0  0  0  0  0  0  0  0  0  0  0
   -6.0625    0.1239   -0.0027 C   0  0  0  0  0  0  0  0  0  0  0  0
   -5.7536    1.4716    0.1285 C   0  0  0  0  0  0  0  0  0  0  0  0
   -4.4478    1.9110    0.3094 C   0  0  0  0  0  0  0  0  0  0  0  0
   -3.9670    2.8917   -0.3051 O   0  0  0  0  0  0  0  0  0  0  0  0
    1.1470    0.4494   -0.5988 C   0  0  0  0  0  0  0  0  0  0  0  0
    1.0326    1.0230   -1.9734 C   0  0  0  0  0  0  0  0  0  0  0  0
    2.2377   -0.1325   -0.0429 N   0  0  0  0  0  0  0  0  0  0  0  0
    3.3277   -0.6224   -0.8814 C   0  0  0  0  0  0  0  0  0  0  0  0
    4.6186    0.0533   -0.5395 C   0  0  0  0  0  0  0  0  0  0  0  0
    5.4898    0.2513   -1.6044 C   0  0  0  0  0  0  0  0  0  0  0  0
    6.8682    0.2438   -1.4374 C   0  0  0  0  0  0  0  0  0  0  0  0
    7.4132   -0.1861   -0.2468 C   0  0  0  0  0  0  0  0  0  0  0  0
    6.5807   -0.4158    0.8174 C   0  0  0  0  0  0  0  0  0  0  0  0
    5.2187   -0.3025    0.6616 C   0  0  0  0  0  0  0  0  0  0  0  0
  1  2  1  0
  2  3  2  0
  3  4  1  0
  4  5  1  0
  5  6  2  0
  5  7  1  0
  7  8  1  0
  8  9  1  0
  9 10  2  0
 10 11  1  0
 11 12  3  0
 10 13  1  0
 13 14  2  0
 14 15  1  0
 15 16  2  0
  4 17  2  0
 17 18  1  0
 17 19  1  0
 19 20  1  0
 20 21  1  0
 21 22  2  0
 22 23  1  0
 23 24  2  0
 24 25  1  0
 25 26  2  0
 19  2  1  0
 26 21  1  0
 15  8  1  0
M  END
>  <zinc_id>  (1) 
ZINC000197195134

>  <smiles>  (1) 
Cc1cc(C(=O)Cn2cc(C#N)ccc2=O)c(C)n1Cc1ccccc1

$$$$
