REMARK SMILES NNC(=O)CSc1nc2scc(-c3ccccc3)c2c(=O)n1-c1ccccc1
REMARK SMILES IDX 6 1 5 2 3 3 1 4 2 5 4 6 7 7 8 8 22 9 9 10 20 11 10 12 19 13
REMARK SMILES IDX 21 14 11 15 12 16 23 17 24 18 28 19 25 20 27 21 26 22 13 23
REMARK SMILES IDX 14 24 18 25 15 26 17 27 16 28
REMARK H PARENT
REMARK Flexibility Score: inf
ROOT
ATOM      1  S   UNL     1       3.151   1.019   0.346  1.00  0.00    -0.077 SA
ENDROOT
BRANCH   1   2
ATOM      2  C   UNL     1       4.105  -0.107  -0.690  1.00  0.00     0.082 C 
BRANCH   2   3
ATOM      3  C   UNL     1       4.867  -1.095   0.104  1.00  0.00     0.244 C 
ATOM      4  N   UNL     1       6.648  -2.763   0.085  1.00  0.00    -0.248 NA
ATOM      5  N   UNL     1       5.704  -1.995  -0.619  1.00  0.00    -0.294 N 
ATOM      6  O   UNL     1       4.995  -0.985   1.359  1.00  0.00    -0.273 OA
ENDBRANCH   2   3
ENDBRANCH   1   2
BRANCH   1   7
ATOM      7  C   UNL     1       1.501   0.358   0.611  1.00  0.00     0.177 A 
ATOM      8  N   UNL     1       1.302  -0.928   0.986  1.00  0.00    -0.212 NA
ATOM      9  N   UNL     1       0.393   1.021   0.203  1.00  0.00    -0.255 N 
ATOM     10  C   UNL     1       0.198  -1.624   0.615  1.00  0.00     0.132 A 
ATOM     11  C   UNL     1      -0.784   0.417  -0.004  1.00  0.00     0.268 A 
ATOM     12  S   UNL     1      -0.157  -3.257   0.215  1.00  0.00    -0.123 S 
ATOM     13  C   UNL     1      -0.852  -0.972  -0.019  1.00  0.00     0.085 A 
ATOM     14  O   UNL     1      -1.812   1.147   0.027  1.00  0.00    -0.268 OA
ATOM     15  C   UNL     1      -1.750  -3.038  -0.389  1.00  0.00     0.002 A 
ATOM     16  C   UNL     1      -2.006  -1.736   0.030  1.00  0.00     0.007 A 
BRANCH   9  17
ATOM     17  C   UNL     1       0.492   2.448   0.130  1.00  0.00     0.051 A 
ATOM     18  C   UNL     1      -0.327   3.181  -0.704  1.00  0.00    -0.038 A 
ATOM     19  C   UNL     1       1.476   3.156   0.798  1.00  0.00    -0.038 A 
ATOM     20  C   UNL     1      -0.411   4.554  -0.626  1.00  0.00    -0.060 A 
ATOM     21  C   UNL     1       1.537   4.532   0.724  1.00  0.00    -0.060 A 
ATOM     22  C   UNL     1       0.537   5.235   0.100  1.00  0.00    -0.062 A 
ENDBRANCH   9  17
BRANCH  16  23
ATOM     23  C   UNL     1      -3.393  -1.242   0.027  1.00  0.00    -0.017 A 
ATOM     24  C   UNL     1      -4.140  -1.364  -1.139  1.00  0.00    -0.054 A 
ATOM     25  C   UNL     1      -4.136  -1.259   1.202  1.00  0.00    -0.054 A 
ATOM     26  C   UNL     1      -5.527  -1.270  -1.134  1.00  0.00    -0.062 A 
ATOM     27  C   UNL     1      -5.458  -1.690   1.214  1.00  0.00    -0.062 A 
ATOM     28  C   UNL     1      -6.154  -1.739   0.013  1.00  0.00    -0.062 A 
ENDBRANCH  16  23
ENDBRANCH   1   7
TORSDOF 5

