
     RDKit          3D

 25 27  0  0  0  0  0  0  0  0999 V2000
   -7.6875    0.0069    0.4990 N   0  0  0  0  0  0  0  0  0  0  0  0
   -6.8627    0.0889   -0.3232 C   0  0  0  0  0  0  0  0  0  0  0  0
   -5.7430    0.2472   -1.2251 C   0  0  0  0  0  0  0  0  0  0  0  0
   -4.9683    1.4011   -1.1787 C   0  0  0  0  0  0  0  0  0  0  0  0
   -3.5982    1.3528   -1.4134 C   0  0  0  0  0  0  0  0  0  0  0  0
   -2.9374    0.1316   -1.4921 C   0  0  0  0  0  0  0  0  0  0  0  0
   -1.6588   -0.0977   -0.8033 C   0  0  0  0  0  0  0  0  0  0  0  0
   -0.5738    0.7173   -1.1036 C   0  0  0  0  0  0  0  0  0  0  0  0
    0.5438    0.6856   -0.2777 C   0  0  0  0  0  0  0  0  0  0  0  0
    0.4373    0.2292    1.0296 C   0  0  0  0  0  0  0  0  0  0  0  0
    1.7083    0.4775    2.1841 S   0  0  0  0  0  0  0  0  0  0  0  0
    1.3154    1.6348    3.0744 O   0  0  0  0  0  0  0  0  0  0  0  0
    1.9411   -0.6962    3.0715 O   0  0  0  0  0  0  0  0  0  0  0  0
    3.1336    0.8940    1.3269 N   0  0  0  0  0  0  0  0  0  0  0  0
    4.0262   -0.0780    0.7806 C   0  0  0  0  0  0  0  0  0  0  0  0
    3.5359   -1.1052   -0.0174 C   0  0  0  0  0  0  0  0  0  0  0  0
    4.3203   -1.6237   -1.0130 C   0  0  0  0  0  0  0  0  0  0  0  0
    5.6760   -1.3387   -1.0411 C   0  0  0  0  0  0  0  0  0  0  0  0
    6.0736   -0.1753   -0.4050 C   0  0  0  0  0  0  0  0  0  0  0  0
    7.3814    0.3418   -0.6470 N   0  0  0  0  0  0  0  0  0  0  0  0
    5.3562    0.1654    0.6938 N   0  0  0  0  0  0  0  0  0  0  0  0
   -0.8422   -0.0584    1.4849 C   0  0  0  0  0  0  0  0  0  0  0  0
   -1.7276   -0.5214    0.5188 C   0  0  0  0  0  0  0  0  0  0  0  0
   -3.7332   -0.9239   -1.9221 C   0  0  0  0  0  0  0  0  0  0  0  0
   -5.1163   -0.8516   -1.8011 C   0  0  0  0  0  0  0  0  0  0  0  0
  1  2  3  0
  2  3  1  0
  3  4  2  0
  4  5  1  0
  5  6  2  0
  6  7  1  0
  7  8  2  0
  8  9  1  0
  9 10  2  0
 10 11  1  0
 11 12  2  0
 11 13  2  0
 11 14  1  0
 14 15  1  0
 15 16  2  0
 16 17  1  0
 17 18  2  0
 18 19  1  0
 19 20  1  0
 19 21  2  0
 10 22  1  0
 22 23  2  0
  6 24  1  0
 24 25  2  0
 25  3  1  0
 23  7  1  0
 21 15  1  0
M  END
>  <zinc_id>  (1) 
ZINC000040955326

>  <smiles>  (1) 
N#Cc1ccc(-c2ccc(S(=O)(=O)Nc3cccc(N)n3)cc2)cc1

$$$$
