REMARK SMILES CC(C)[C@H](CO)Nc1nc(Nc2cccc(Cl)c2)c2ncn(C(C)C)c2n1
REMARK SMILES IDX 8 1 27 2 26 3 19 4 20 5 21 6 22 7 10 8 9 9 7 10 4 11 2 12
REMARK SMILES IDX 1 13 3 14 5 15 6 16 11 17 12 18 13 19 18 20 14 21 16 22
REMARK SMILES IDX 15 23 17 24 23 25 24 26 25 27
REMARK H PARENT
REMARK Flexibility Score: inf
ROOT
ATOM      1  C   UNL     1      -1.696   0.662  -0.311  1.00  0.00     0.227 A 
ATOM      2  N   UNL     1      -1.748  -0.657   0.002  1.00  0.00    -0.193 NA
ATOM      3  C   UNL     1      -0.704  -1.391   0.380  1.00  0.00     0.167 A 
ATOM      4  C   UNL     1       0.553  -0.844   0.141  1.00  0.00     0.150 A 
ATOM      5  N   UNL     1       1.406  -1.877   0.288  1.00  0.00    -0.231 NA
ATOM      6  C   UNL     1       0.708  -3.012   0.512  1.00  0.00     0.097 A 
ATOM      7  N   UNL     1      -0.597  -2.736   0.536  1.00  0.00    -0.313 N 
ATOM      8  C   UNL     1       0.678   0.428  -0.407  1.00  0.00     0.164 A 
ATOM      9  N   UNL     1      -0.442   1.145  -0.486  1.00  0.00    -0.193 NA
ENDROOT
BRANCH   1  10
ATOM     10  N   UNL     1      -2.723   1.107  -1.160  1.00  0.00    -0.349 N 
BRANCH  10  11
ATOM     11  C   UNL     1      -4.114   1.521  -0.501  1.00  0.00     0.054 C 
BRANCH  11  12
ATOM     12  C   UNL     1      -3.376   2.642   0.495  1.00  0.00    -0.024 C 
ATOM     13  C   UNL     1      -4.206   3.022   0.996  1.00  0.00    -0.061 C 
ATOM     14  C   UNL     1      -2.892   3.650  -0.543  1.00  0.00    -0.061 C 
ENDBRANCH  11  12
BRANCH  11  15
ATOM     15  C   UNL     1      -4.050   0.352   0.692  1.00  0.00     0.064 C 
ATOM     16  O   UNL     1      -5.191  -0.403   0.488  1.00  0.00    -0.394 OA
ENDBRANCH  11  15
ENDBRANCH  10  11
ENDBRANCH   1  10
BRANCH   8  17
ATOM     17  N   UNL     1       1.810   0.615  -1.268  1.00  0.00    -0.338 N 
BRANCH  17  18
ATOM     18  C   UNL     1       3.115   0.881  -0.848  1.00  0.00     0.041 A 
ATOM     19  C   UNL     1       3.934   1.610  -1.704  1.00  0.00    -0.038 A 
ATOM     20  C   UNL     1       3.711   0.402   0.296  1.00  0.00    -0.020 A 
ATOM     21  C   UNL     1       4.979   2.350  -1.161  1.00  0.00    -0.059 A 
ATOM     22  C   UNL     1       4.939   0.909   0.702  1.00  0.00     0.043 A 
ATOM     23  C   UNL     1       5.378   2.088   0.146  1.00  0.00    -0.043 A 
ATOM     24  Cl  UNL     1       5.961   0.047   1.853  1.00  0.00    -0.084 Cl
ENDBRANCH  17  18
ENDBRANCH   8  17
BRANCH   7  25
ATOM     25  C   UNL     1      -1.670  -3.668   0.241  1.00  0.00     0.031 C 
ATOM     26  C   UNL     1      -2.539  -3.954   1.427  1.00  0.00    -0.044 C 
ATOM     27  C   UNL     1      -1.226  -4.887  -0.501  1.00  0.00    -0.044 C 
ENDBRANCH   7  25
TORSDOF 7

