
     RDKit          3D

 27 29  0  0  0  0  0  0  0  0999 V2000
   -6.1792   -0.2115    1.1609 C   0  0  0  0  0  0  0  0  0  0  0  0
   -4.7964   -0.6847    0.9458 C   0  0  0  0  0  0  0  0  0  0  0  0
   -4.2095   -1.7888    1.4143 N   0  0  0  0  0  0  0  0  0  0  0  0
   -2.9818   -1.8803    0.9283 N   0  0  0  0  0  0  0  0  0  0  0  0
   -2.0490   -2.9046    1.3193 C   0  0  0  0  0  0  0  0  0  0  0  0
   -2.7299   -0.8511    0.1172 C   0  0  0  0  0  0  0  0  0  0  0  0
   -1.6067   -0.3775   -0.4655 N   0  0  0  0  0  0  0  0  0  0  0  0
   -1.5647    0.8519   -1.0332 C   0  0  0  0  0  0  0  0  0  0  0  0
   -0.3136    1.5447   -1.0826 N   0  0  0  0  0  0  0  0  0  0  0  0
    0.8276    0.8032   -1.3842 N   0  0  0  0  0  0  0  0  0  0  0  0
    1.6554    0.4162   -0.2810 C   0  0  0  0  0  0  0  0  0  0  0  0
    1.2745    0.4354    0.9094 O   0  0  0  0  0  0  0  0  0  0  0  0
    2.7119   -0.4955   -0.5923 N   0  0  0  0  0  0  0  0  0  0  0  0
    3.8518   -0.5375    0.2742 C   0  0  0  0  0  0  0  0  0  0  0  0
    4.6283    0.6037    0.4360 C   0  0  0  0  0  0  0  0  0  0  0  0
    6.0123    0.5196    0.5069 C   0  0  0  0  0  0  0  0  0  0  0  0
    7.0458    1.9308    0.4553 Cl  0  0  0  0  0  0  0  0  0  0  0  0
    6.6322   -0.6822    0.5379 N   0  0  0  0  0  0  0  0  0  0  0  0
    5.8985   -1.8209    0.5416 C   0  0  0  0  0  0  0  0  0  0  0  0
    6.7801   -3.3291    0.3174 Cl  0  0  0  0  0  0  0  0  0  0  0  0
    4.5297   -1.7428    0.3970 C   0  0  0  0  0  0  0  0  0  0  0  0
   -2.7702    1.4603   -1.2900 C   0  0  0  0  0  0  0  0  0  0  0  0
   -3.9366    1.0673   -0.6498 C   0  0  0  0  0  0  0  0  0  0  0  0
   -5.0485    2.0160   -0.3568 C   0  0  0  0  0  0  0  0  0  0  0  0
   -4.6105    2.8508    0.8406 C   0  0  0  0  0  0  0  0  0  0  0  0
   -5.1205    2.9742   -1.5355 C   0  0  0  0  0  0  0  0  0  0  0  0
   -3.9313   -0.1676   -0.0104 C   0  0  0  0  0  0  0  0  0  0  0  0
  1  2  1  0
  2  3  2  0
  3  4  1  0
  4  5  1  0
  4  6  1  0
  6  7  2  0
  7  8  1  0
  8  9  1  0
  9 10  1  0
 10 11  1  0
 11 12  2  0
 11 13  1  0
 13 14  1  0
 14 15  2  0
 15 16  1  0
 16 17  1  0
 16 18  2  0
 18 19  1  0
 19 20  1  0
 19 21  2  0
  8 22  2  0
 22 23  1  0
 23 24  1  0
 24 25  1  0
 24 26  1  0
 23 27  2  0
 27  2  1  0
 27  6  1  0
 21 14  1  0
M  END
>  <zinc_id>  (1) 
ZINC000013813291

>  <smiles>  (1) 
Cc1nn(C)c2nc(NNC(=O)Nc3cc(Cl)nc(Cl)c3)cc(C(C)C)c12

$$$$
