
     RDKit          3D

  8  7  0  0  0  0  0  0  0  0999 V2000
    2.6149    1.2254   -0.0982 C   0  0  0  0  0  0  0  0  0  0  0  0
    2.2272   -0.2200   -0.3855 C   0  0  0  0  0  0  0  0  0  0  0  0
    0.9743   -0.1588   -1.0660 O   0  0  0  0  0  0  0  0  0  0  0  0
   -0.1477   -0.4628   -0.3095 C   0  0  0  0  0  0  0  0  0  0  0  0
   -0.1145   -1.5511    0.3334 O   0  0  0  0  0  0  0  0  0  0  0  0
   -1.4302    0.2266   -0.4995 C   0  0  0  0  0  0  0  0  0  0  0  0
   -2.4945   -0.3535   -1.3643 C   0  0  0  0  0  0  0  0  0  0  0  0
   -1.6295    1.2942    0.1489 O   0  0  0  0  0  0  0  0  0  0  0  0
  1  2  1  0
  2  3  1  0
  3  4  1  0
  4  5  2  0
  4  6  1  0
  6  7  1  0
  6  8  2  0
M  END
>  <zinc_id>  (1) 
ZINC000001679741

>  <smiles>  (1) 
CCOC(=O)C(C)=O

$$$$
