REMARK SMILES CCOc1ccccc1N/N=C1/C(=O)N(c2nc(-c3ccccc3)cs2)N=C1C
REMARK SMILES IDX 10 1 9 2 4 3 5 4 6 5 8 6 7 7 3 8 2 9 1 10 11 11 12 12 13 13
REMARK SMILES IDX 28 14 14 15 15 16 27 17 29 18 16 19 17 20 26 21 18 22 25 23
REMARK SMILES IDX 19 24 20 25 24 26 21 27 23 28 22 29
REMARK H PARENT
REMARK Flexibility Score: inf
ROOT
ATOM      1  N   UNL     1      -3.568  -0.152   0.375  1.00  0.00    -0.274 N 
ENDROOT
BRANCH   1   2
ATOM      2  C   UNL     1      -4.729   0.573  -0.049  1.00  0.00     0.098 A 
ATOM      3  C   UNL     1      -5.614  -0.107  -0.878  1.00  0.00     0.144 A 
ATOM      4  C   UNL     1      -6.460   0.703  -1.627  1.00  0.00    -0.018 A 
ATOM      5  C   UNL     1      -6.398   2.089  -1.549  1.00  0.00    -0.058 A 
ATOM      6  C   UNL     1      -4.919   1.911   0.272  1.00  0.00    -0.033 A 
ATOM      7  C   UNL     1      -5.891   2.655  -0.386  1.00  0.00    -0.060 A 
BRANCH   3   8
ATOM      8  O   UNL     1      -5.972  -1.399  -0.507  1.00  0.00    -0.492 OA
BRANCH   8   9
ATOM      9  C   UNL     1      -5.280  -2.554  -0.893  1.00  0.00     0.085 C 
ATOM     10  C   UNL     1      -6.139  -3.736  -0.459  1.00  0.00    -0.031 C 
ENDBRANCH   8   9
ENDBRANCH   3   8
ENDBRANCH   1   2
BRANCH   1  11
ATOM     11  N   UNL     1      -2.468   0.648   0.746  1.00  0.00    -0.168 NA
ATOM     12  C   UNL     1      -1.320   0.263   0.271  1.00  0.00     0.173 C 
ATOM     13  C   UNL     1      -0.106   1.079   0.159  1.00  0.00     0.303 C 
ATOM     14  C   UNL     1      -0.822  -1.110   0.383  1.00  0.00     0.092 C 
ATOM     15  O   UNL     1      -0.081   2.301  -0.081  1.00  0.00    -0.265 OA
ATOM     16  N   UNL     1       0.984   0.174   0.363  1.00  0.00    -0.166 N 
ATOM     17  N   UNL     1       0.477  -1.111   0.418  1.00  0.00    -0.165 NA
ATOM     18  C   UNL     1      -1.707  -2.280   0.658  1.00  0.00    -0.018 C 
BRANCH  16  19
ATOM     19  C   UNL     1       2.345   0.623   0.418  1.00  0.00     0.214 A 
ATOM     20  N   UNL     1       3.438  -0.080   0.804  1.00  0.00    -0.218 NA
ATOM     21  S   UNL     1       2.877   2.204   0.826  1.00  0.00    -0.103 S 
ATOM     22  C   UNL     1       4.568   0.552   0.472  1.00  0.00     0.084 A 
ATOM     23  C   UNL     1       4.559   1.867   0.930  1.00  0.00     0.021 A 
BRANCH  22  24
ATOM     24  C   UNL     1       5.824  -0.186   0.273  1.00  0.00     0.001 A 
ATOM     25  C   UNL     1       5.904  -1.272  -0.589  1.00  0.00    -0.053 A 
ATOM     26  C   UNL     1       7.014   0.253   0.808  1.00  0.00    -0.053 A 
ATOM     27  C   UNL     1       7.033  -2.073  -0.596  1.00  0.00    -0.062 A 
ATOM     28  C   UNL     1       8.213  -0.405   0.575  1.00  0.00    -0.062 A 
ATOM     29  C   UNL     1       8.238  -1.429  -0.360  1.00  0.00    -0.062 A 
ENDBRANCH  22  24
ENDBRANCH  16  19
ENDBRANCH   1  11
TORSDOF 6

