REMARK SMILES Cc1cc(Cl)ccc1OCCCC(=O)NO
REMARK SMILES IDX 10 1 9 2 8 3 1 4 2 5 3 6 4 7 7 8 5 9 6 10 11 11 12 12 13 13
REMARK SMILES IDX 14 14 15 15 16 16
REMARK H PARENT
REMARK Flexibility Score: inf
ROOT
ATOM      1  C   UNL     1       0.794  -1.292   0.233  1.00  0.00     0.089 C 
ENDROOT
BRANCH   1   2
ATOM      2  O   UNL     1      -0.137  -1.141   1.285  1.00  0.00    -0.493 OA
BRANCH   2   3
ATOM      3  C   UNL     1      -1.402  -0.612   1.065  1.00  0.00     0.122 A 
ATOM      4  C   UNL     1      -2.059  -2.470  -0.398  1.00  0.00    -0.036 C 
ATOM      5  C   UNL     1      -2.229  -1.070   0.046  1.00  0.00    -0.008 A 
ATOM      6  C   UNL     1      -3.118  -0.202  -0.576  1.00  0.00    -0.037 A 
ATOM      7  C   UNL     1      -3.052   1.162  -0.318  1.00  0.00     0.041 A 
ATOM      8  C   UNL     1      -1.818   0.573   1.663  1.00  0.00    -0.018 A 
ATOM      9  Cl  UNL     1      -3.276   2.350  -1.597  1.00  0.00    -0.084 Cl
ATOM     10  C   UNL     1      -2.518   1.511   0.916  1.00  0.00    -0.040 A 
ENDBRANCH   2   3
ENDBRANCH   1   2
BRANCH   1  11
ATOM     11  C   UNL     1       1.089  -0.010  -0.489  1.00  0.00    -0.010 C 
BRANCH  11  12
ATOM     12  C   UNL     1       1.795   0.935   0.465  1.00  0.00     0.032 C 
BRANCH  12  13
ATOM     13  C   UNL     1       3.263   0.668   0.371  1.00  0.00     0.243 C 
ATOM     14  O   UNL     1       3.987   1.158  -0.538  1.00  0.00    -0.273 OA
ATOM     15  N   UNL     1       3.795  -0.445   1.090  1.00  0.00    -0.238 N 
ATOM     16  O   UNL     1       4.886  -1.115   0.637  1.00  0.00    -0.289 OA
ENDBRANCH  12  13
ENDBRANCH  11  12
ENDBRANCH   1  11
TORSDOF 5

