REMARK SMILES O=C(O)c1cc(/N=N/c2ccc(S(=O)(=O)Nc3ccccn3)cc2)ccc1O
REMARK SMILES IDX 9 1 10 2 11 3 12 4 23 5 24 6 8 7 7 8 6 9 4 10 5 11 27 12
REMARK SMILES IDX 26 13 28 14 25 15 2 16 1 17 3 18 13 19 14 20 15 21 16 22
REMARK SMILES IDX 17 23 18 24 22 25 19 26 21 27 20 28
REMARK H PARENT
REMARK Flexibility Score: inf
ROOT
ATOM      1  C   UNL     1      -0.502  -1.184  -0.651  1.00  0.00     0.086 A 
ATOM      2  C   UNL     1       0.095  -1.434   0.577  1.00  0.00    -0.033 A 
ATOM      3  C   UNL     1       1.399  -1.038   0.807  1.00  0.00    -0.039 A 
ATOM      4  C   UNL     1       2.079  -0.218  -0.061  1.00  0.00     0.088 A 
ATOM      5  C   UNL     1       1.411   0.156  -1.220  1.00  0.00    -0.039 A 
ATOM      6  C   UNL     1       0.120  -0.273  -1.492  1.00  0.00    -0.033 A 
ENDROOT
BRANCH   1   7
ATOM      7  N   UNL     1      -1.929  -1.244  -0.759  1.00  0.00    -0.151 NA
ATOM      8  N   UNL     1      -2.638  -0.294  -1.176  1.00  0.00    -0.151 NA
BRANCH   8   9
ATOM      9  C   UNL     1      -3.815   0.176  -0.512  1.00  0.00     0.087 A 
ATOM     10  C   UNL     1      -6.204   0.313  -0.304  1.00  0.00     0.103 A 
ATOM     11  C   UNL     1      -5.077   0.052  -1.073  1.00  0.00    -0.016 A 
ATOM     12  C   UNL     1      -6.031   0.835   0.972  1.00  0.00     0.130 A 
ATOM     13  C   UNL     1      -4.754   1.067   1.457  1.00  0.00    -0.017 A 
ATOM     14  O   UNL     1      -7.146   0.922   1.812  1.00  0.00    -0.507 OA
ATOM     15  C   UNL     1      -3.709   1.073   0.544  1.00  0.00    -0.031 A 
BRANCH  10  16
ATOM     16  C   UNL     1      -7.510   0.411  -0.963  1.00  0.00     0.339 C 
ATOM     17  O   UNL     1      -8.418  -0.357  -0.551  1.00  0.00    -0.246 OA
ATOM     18  O   UNL     1      -7.912   1.676  -1.388  1.00  0.00    -0.478 OA
ENDBRANCH  10  16
ENDBRANCH   8   9
ENDBRANCH   1   7
BRANCH   4  19
ATOM     19  S   UNL     1       3.818  -0.302  -0.150  1.00  0.00     0.263 S 
ATOM     20  O   UNL     1       4.337   0.487  -1.315  1.00  0.00    -0.201 OA
ATOM     21  O   UNL     1       4.260  -1.741  -0.282  1.00  0.00    -0.201 OA
BRANCH  19  22
ATOM     22  N   UNL     1       4.562   0.296   1.301  1.00  0.00    -0.263 N 
BRANCH  22  23
ATOM     23  C   UNL     1       5.995   0.292   1.306  1.00  0.00     0.139 A 
ATOM     24  C   UNL     1       6.662  -0.896   1.042  1.00  0.00    -0.019 A 
ATOM     25  N   UNL     1       6.585   1.430   0.886  1.00  0.00    -0.239 NA
ATOM     26  C   UNL     1       7.981  -0.918   0.604  1.00  0.00    -0.057 A 
ATOM     27  C   UNL     1       7.872   1.478   0.476  1.00  0.00     0.029 A 
ATOM     28  C   UNL     1       8.468   0.283   0.115  1.00  0.00    -0.044 A 
ENDBRANCH  22  23
ENDBRANCH  19  22
ENDBRANCH   4  19
TORSDOF 6

