REMARK SMILES CCCCCCCCCCCCCCCCOc1nc2ccc(C)cc2c(=O)o1
REMARK SMILES IDX 10 1 9 2 8 3 7 4 6 5 5 6 4 7 3 8 2 9 1 10 11 11 12 12 13 13
REMARK SMILES IDX 14 14 15 15 16 16 17 17 18 18 19 19 29 20 20 21 27 22 21 23
REMARK SMILES IDX 26 24 28 25 22 26 25 27 23 28 24 29
REMARK H PARENT
REMARK Flexibility Score: inf
ROOT
ATOM      1  C   UNL     1       3.773   1.296  -0.442  1.00  0.00    -0.053 C 
ENDROOT
BRANCH   1   2
ATOM      2  C   UNL     1       4.756   0.880   0.640  1.00  0.00    -0.053 C 
BRANCH   2   3
ATOM      3  C   UNL     1       4.531  -0.527   1.113  1.00  0.00    -0.053 C 
BRANCH   3   4
ATOM      4  C   UNL     1       5.435  -1.533   0.456  1.00  0.00    -0.053 C 
BRANCH   4   5
ATOM      5  C   UNL     1       6.046  -1.041  -0.825  1.00  0.00    -0.053 C 
BRANCH   5   6
ATOM      6  C   UNL     1       7.532  -1.288  -0.817  1.00  0.00    -0.053 C 
BRANCH   6   7
ATOM      7  C   UNL     1       8.120  -1.293   0.569  1.00  0.00    -0.053 C 
BRANCH   7   8
ATOM      8  C   UNL     1       8.576   0.065   1.021  1.00  0.00    -0.054 C 
BRANCH   8   9
ATOM      9  C   UNL     1       8.926   0.978  -0.132  1.00  0.00    -0.056 C 
ATOM     10  C   UNL     1       9.262   2.331   0.475  1.00  0.00    -0.065 C 
ENDBRANCH   8   9
ENDBRANCH   7   8
ENDBRANCH   6   7
ENDBRANCH   5   6
ENDBRANCH   4   5
ENDBRANCH   3   4
ENDBRANCH   2   3
ENDBRANCH   1   2
BRANCH   1  11
ATOM     11  C   UNL     1       2.860   0.170  -0.837  1.00  0.00    -0.053 C 
BRANCH  11  12
ATOM     12  C   UNL     1       1.611   0.122   0.007  1.00  0.00    -0.053 C 
BRANCH  12  13
ATOM     13  C   UNL     1       1.379  -1.333   0.361  1.00  0.00    -0.053 C 
BRANCH  13  14
ATOM     14  C   UNL     1       0.540  -1.435   1.611  1.00  0.00    -0.050 C 
BRANCH  14  15
ATOM     15  C   UNL     1      -0.791  -0.757   1.383  1.00  0.00    -0.019 C 
BRANCH  15  16
ATOM     16  C   UNL     1      -1.462  -1.457   0.234  1.00  0.00     0.093 C 
BRANCH  16  17
ATOM     17  O   UNL     1      -2.686  -2.011   0.690  1.00  0.00    -0.450 OA
BRANCH  17  18
ATOM     18  C   UNL     1      -3.853  -1.268   0.495  1.00  0.00     0.397 A 
ATOM     19  N   UNL     1      -3.733   0.072   0.651  1.00  0.00    -0.178 NA
ATOM     20  O   UNL     1      -4.643  -1.699  -0.473  1.00  0.00    -0.373 OA
ATOM     21  C   UNL     1      -4.731   0.920   0.315  1.00  0.00     0.085 A 
ATOM     22  C   UNL     1      -5.502  -0.854  -1.011  1.00  0.00     0.349 A 
ATOM     23  C   UNL     1      -4.932   2.108   0.965  1.00  0.00    -0.035 A 
ATOM     24  C   UNL     1      -5.749   0.393  -0.469  1.00  0.00     0.086 A 
ATOM     25  O   UNL     1      -6.332  -1.303  -1.831  1.00  0.00    -0.246 OA
ATOM     26  C   UNL     1      -6.084   2.820   0.656  1.00  0.00    -0.057 A 
ATOM     27  C   UNL     1      -7.030   0.920  -0.362  1.00  0.00    -0.043 A 
ATOM     28  C   UNL     1      -7.226   2.079   0.380  1.00  0.00    -0.050 A 
ATOM     29  C   UNL     1      -8.594   2.648   0.506  1.00  0.00    -0.040 C 
ENDBRANCH  17  18
ENDBRANCH  16  17
ENDBRANCH  15  16
ENDBRANCH  14  15
ENDBRANCH  13  14
ENDBRANCH  12  13
ENDBRANCH  11  12
ENDBRANCH   1  11
TORSDOF 16

