
     RDKit          3D

 27 29  0  0  0  0  0  0  0  0999 V2000
   -4.4440   -0.2400    2.0664 C   0  0  0  0  0  0  0  0  0  0  0  0
   -4.8060    0.4245    1.1753 N   0  0  0  0  0  0  0  0  0  0  0  0
   -5.8239    1.2682    1.1792 N   0  0  0  0  0  0  0  0  0  0  0  0
   -6.0604    1.7814   -0.0281 C   0  0  0  0  0  0  0  0  0  0  0  0
   -5.0514    1.3353   -0.8630 C   0  0  0  0  0  0  0  0  0  0  0  0
   -4.6929    1.8726   -2.5014 Cl  0  0  0  0  0  0  0  0  0  0  0  0
   -4.2615    0.5217   -0.0601 C   0  0  0  0  0  0  0  0  0  0  0  0
   -3.1405   -0.3121   -0.5181 C   0  0  0  0  0  0  0  0  0  0  0  0
   -1.8644    0.1521   -0.6289 C   0  0  0  0  0  0  0  0  0  0  0  0
   -0.9226   -0.8591   -0.4827 C   0  0  0  0  0  0  0  0  0  0  0  0
    0.5428   -0.7489   -0.5018 C   0  0  0  0  0  0  0  0  0  0  0  0
    1.2037   -1.1785   -1.4972 O   0  0  0  0  0  0  0  0  0  0  0  0
    1.3252   -0.5706    0.6862 N   0  0  0  0  0  0  0  0  0  0  0  0
    2.4050   -1.7263    0.8738 C   0  0  2  0  0  0  0  0  0  0  0  0
    3.3196   -0.7930    1.9003 C   0  0  0  0  0  0  0  0  0  0  0  0
    2.3816   -0.4260    2.9487 N   0  0  0  0  0  0  0  0  0  0  0  0
    3.2026   -1.2703   -0.5047 C   0  0  0  0  0  0  0  0  0  0  0  0
    3.9797   -0.0921   -0.2616 C   0  0  0  0  0  0  0  0  0  0  0  0
    3.5179    1.1958   -0.0368 C   0  0  0  0  0  0  0  0  0  0  0  0
    4.3640    2.2364   -0.4017 C   0  0  0  0  0  0  0  0  0  0  0  0
    5.7296    2.1040   -0.2211 C   0  0  0  0  0  0  0  0  0  0  0  0
    6.2193    0.8141   -0.0970 C   0  0  0  0  0  0  0  0  0  0  0  0
    7.5341    0.6131    0.1842 F   0  0  0  0  0  0  0  0  0  0  0  0
    5.3518   -0.2452   -0.0858 C   0  0  0  0  0  0  0  0  0  0  0  0
   -1.7780   -2.1453   -1.2364 S   0  0  0  0  0  0  0  0  0  0  0  0
   -3.3503   -1.4530   -1.2839 C   0  0  0  0  0  0  0  0  0  0  0  0
   -4.8810   -2.2588   -1.6193 Cl  0  0  0  0  0  0  0  0  0  0  0  0
  1  2  1  0
  2  3  1  0
  3  4  2  0
  4  5  1  0
  5  6  1  0
  5  7  2  0
  7  8  1  0
  8  9  1  0
  9 10  2  0
 10 11  1  0
 11 12  2  0
 11 13  1  0
 14 13  1  6
 14 15  1  0
 15 16  1  0
 14 17  1  0
 17 18  1  0
 18 19  2  0
 19 20  1  0
 20 21  2  0
 21 22  1  0
 22 23  1  0
 22 24  2  0
 10 25  1  0
 25 26  1  0
 26 27  1  0
  7  2  1  0
 26  8  2  0
 24 18  1  0
M  END
>  <zinc_id>  (1) 
ZINC000043197674

>  <smiles>  (1) 
Cn1ncc(Cl)c1-c1cc(C(=O)N[C@H](CN)Cc2cccc(F)c2)sc1Cl

$$$$
