REMARK SMILES CNCCc1c[nH]cn1
REMARK SMILES IDX 3 1 2 2 1 3 4 4 5 5 6 6 9 7 7 8 8 9
REMARK H PARENT
REMARK Flexibility Score: inf
ROOT
ATOM      1  C   UNL     1       1.748  -0.097   0.494  1.00  0.00     0.000 C 
ENDROOT
BRANCH   1   2
ATOM      2  N   UNL     1       2.588   0.711  -0.387  1.00  0.00    -0.319 NA
ATOM      3  C   UNL     1       3.940   0.234  -0.460  1.00  0.00    -0.016 C 
ENDBRANCH   1   2
BRANCH   1   4
ATOM      4  C   UNL     1       0.686  -0.694  -0.389  1.00  0.00     0.004 C 
BRANCH   4   5
ATOM      5  C   UNL     1      -0.697  -0.377   0.085  1.00  0.00     0.059 A 
ATOM      6  C   UNL     1      -1.796  -1.023  -0.472  1.00  0.00     0.024 A 
ATOM      7  N   UNL     1      -1.133   0.808   0.575  1.00  0.00    -0.242 NA
ATOM      8  N   UNL     1      -2.860  -0.400   0.080  1.00  0.00    -0.351 N 
ATOM      9  C   UNL     1      -2.477   0.839   0.466  1.00  0.00     0.092 A 
ENDBRANCH   4   5
ENDBRANCH   1   4
TORSDOF 3

