
     RDKit          3D

 28 31  0  0  0  0  0  0  0  0999 V2000
    5.8729    1.7234   -1.3013 O   0  0  0  0  0  0  0  0  0  0  0  0
    4.8991    1.6863   -0.5158 C   0  0  0  0  0  0  0  0  0  0  0  0
    4.4490    2.8664    0.0353 O   0  0  0  0  0  0  0  0  0  0  0  0
    4.1694    0.4157   -0.4091 C   0  0  0  0  0  0  0  0  0  0  0  0
    3.4323   -0.0712   -1.4828 C   0  0  0  0  0  0  0  0  0  0  0  0
    2.2208   -0.7154   -1.2596 C   0  0  0  0  0  0  0  0  0  0  0  0
    1.6452   -0.7781    0.0050 C   0  0  0  0  0  0  0  0  0  0  0  0
    0.2592   -0.4698    0.2112 N   0  0  0  0  0  0  0  0  0  0  0  0
   -0.1969    0.7549    0.4707 N   0  0  0  0  0  0  0  0  0  0  0  0
   -1.3867    0.9380   -0.1497 C   0  0  0  0  0  0  0  0  0  0  0  0
   -2.0513    2.2377   -0.2881 C   0  0  0  0  0  0  0  0  0  0  0  0
   -1.3070    3.3851   -0.1387 C   0  0  0  0  0  0  0  0  0  0  0  0
   -1.9272    4.6052    0.0782 C   0  0  0  0  0  0  0  0  0  0  0  0
   -3.2289    4.5602    0.5643 C   0  0  0  0  0  0  0  0  0  0  0  0
   -3.9937    3.5034    0.0857 C   0  0  0  0  0  0  0  0  0  0  0  0
   -3.4006    2.3697   -0.4557 C   0  0  0  0  0  0  0  0  0  0  0  0
   -4.1163    1.2922   -0.9328 O   0  0  0  0  0  0  0  0  0  0  0  0
   -1.8602   -0.2926   -0.3549 N   0  0  0  0  0  0  0  0  0  0  0  0
   -0.8295   -1.1541   -0.1722 C   0  0  0  0  0  0  0  0  0  0  0  0
   -0.8354   -2.6152   -0.2740 C   0  0  0  0  0  0  0  0  0  0  0  0
   -1.3715   -3.2670   -1.3778 C   0  0  0  0  0  0  0  0  0  0  0  0
   -2.1527   -4.4081   -1.2377 C   0  0  0  0  0  0  0  0  0  0  0  0
   -2.2471   -5.0366   -0.0113 C   0  0  0  0  0  0  0  0  0  0  0  0
   -1.4393   -4.5679    1.0121 C   0  0  0  0  0  0  0  0  0  0  0  0
   -0.7124   -3.3942    0.8693 C   0  0  0  0  0  0  0  0  0  0  0  0
   -0.2902   -2.7867    2.0362 O   0  0  0  0  0  0  0  0  0  0  0  0
    2.5599   -0.6411    1.0442 C   0  0  0  0  0  0  0  0  0  0  0  0
    3.8392   -0.1401    0.8224 C   0  0  0  0  0  0  0  0  0  0  0  0
  1  2  2  0
  2  3  1  0
  2  4  1  0
  4  5  2  0
  5  6  1  0
  6  7  2  0
  7  8  1  0
  8  9  1  0
  9 10  2  0
 10 11  1  0
 11 12  2  0
 12 13  1  0
 13 14  2  0
 14 15  1  0
 15 16  2  0
 16 17  1  0
 10 18  1  0
 18 19  2  0
 19 20  1  0
 20 21  2  0
 21 22  1  0
 22 23  2  0
 23 24  1  0
 24 25  2  0
 25 26  1  0
  7 27  1  0
 27 28  2  0
 28  4  1  0
 19  8  1  0
 25 20  1  0
 16 11  1  0
M  END
>  <zinc_id>  (1) 
ZINC000001481815

>  <smiles>  (1) 
O=C(O)c1ccc(-n2nc(-c3ccccc3O)nc2-c2ccccc2O)cc1

$$$$
