
     RDKit          3D

 12 13  0  0  0  0  0  0  0  0999 V2000
    3.4137   -0.8671    0.0512 C   0  0  0  0  0  0  0  0  0  0  0  0
    1.9977   -1.2984   -0.1915 C   0  0  0  0  0  0  0  0  0  0  0  0
    1.0452   -0.2361    0.0252 N   0  0  0  0  0  0  0  0  0  0  0  0
   -0.2915   -0.4296    0.0827 C   0  0  0  0  0  0  0  0  0  0  0  0
   -1.1066   -1.4862    0.4714 C   0  0  0  0  0  0  0  0  0  0  0  0
   -2.4648   -1.4691    0.1925 C   0  0  0  0  0  0  0  0  0  0  0  0
   -3.0267   -0.2574   -0.1149 C   0  0  0  0  0  0  0  0  0  0  0  0
   -2.2448    0.8031   -0.5178 C   0  0  0  0  0  0  0  0  0  0  0  0
   -0.8806    0.7687   -0.3027 C   0  0  0  0  0  0  0  0  0  0  0  0
    0.0418    1.7382   -0.0905 N   0  0  0  0  0  0  0  0  0  0  0  0
    1.2046    1.0842    0.1438 C   0  0  0  0  0  0  0  0  0  0  0  0
    2.3117    1.6496    0.2507 O   0  0  0  0  0  0  0  0  0  0  0  0
  1  2  1  0
  2  3  1  0
  3  4  1  0
  4  5  2  0
  5  6  1  0
  6  7  2  0
  7  8  1  0
  8  9  2  0
  9 10  1  0
 10 11  1  0
 11 12  2  0
 11  3  1  0
  9  4  1  0
M  END
>  <zinc_id>  (1) 
ZINC000002564009

>  <smiles>  (1) 
CCn1c(=O)[nH]c2ccccc21

$$$$
