
     RDKit          3D

 29 32  0  0  0  0  0  0  0  0999 V2000
    3.2291   -0.4923    0.8468 O   0  0  0  0  0  0  0  0  0  0  0  0
    3.6543   -1.0725   -0.1976 C   0  0  0  0  0  0  0  0  0  0  0  0
    2.8275   -0.9285   -1.3577 N   0  0  0  0  0  0  0  0  0  0  0  0
    1.5247   -0.2886   -1.2897 C   0  0  0  0  0  0  0  0  0  0  0  0
    1.2013    0.2267    0.0857 C   0  0  0  0  0  0  0  0  0  0  0  0
    0.2109   -0.6225    0.7083 N   0  0  0  0  0  0  0  0  0  0  0  0
   -0.5744    0.0959    1.6969 C   0  0  0  0  0  0  0  0  0  0  0  0
   -1.0843    1.3359    1.0294 C   0  0  0  0  0  0  0  0  0  0  0  0
   -1.8001    1.1149   -0.2528 C   0  0  0  0  0  0  0  0  0  0  0  0
   -3.1944    1.4680   -0.1784 N   0  0  0  0  0  0  0  0  0  0  0  0
   -3.7559    2.6394   -0.5336 C   0  0  0  0  0  0  0  0  0  0  0  0
   -3.1519    3.7532   -0.4924 O   0  0  0  0  0  0  0  0  0  0  0  0
   -5.0843    2.4171   -0.5988 N   0  0  0  0  0  0  0  0  0  0  0  0
   -5.3617    1.1766   -0.1843 C   0  0  0  0  0  0  0  0  0  0  0  0
   -6.5144    0.4083   -0.2339 C   0  0  0  0  0  0  0  0  0  0  0  0
   -6.4808   -0.9215    0.1484 C   0  0  0  0  0  0  0  0  0  0  0  0
   -7.4688   -2.1111   -0.6941 Cl  0  0  0  0  0  0  0  0  0  0  0  0
   -5.3925   -1.3270    0.9112 C   0  0  0  0  0  0  0  0  0  0  0  0
   -4.2364   -0.5581    0.9188 C   0  0  0  0  0  0  0  0  0  0  0  0
   -4.1559    0.6607    0.2749 C   0  0  0  0  0  0  0  0  0  0  0  0
   -1.5859   -0.1830   -0.9250 C   0  0  0  0  0  0  0  0  0  0  0  0
   -0.7154   -1.1687   -0.2415 C   0  0  0  0  0  0  0  0  0  0  0  0
    5.0996   -1.2153   -0.3974 C   0  0  0  0  0  0  0  0  0  0  0  0
    5.7242   -0.8517   -1.5724 C   0  0  0  0  0  0  0  0  0  0  0  0
    6.9719   -0.2512   -1.4986 C   0  0  0  0  0  0  0  0  0  0  0  0
    7.8241   -0.6616   -0.4978 C   0  0  0  0  0  0  0  0  0  0  0  0
    9.1044   -0.2127   -0.5358 F   0  0  0  0  0  0  0  0  0  0  0  0
    7.2636   -1.0445    0.6915 C   0  0  0  0  0  0  0  0  0  0  0  0
    5.9216   -1.3861    0.7072 C   0  0  0  0  0  0  0  0  0  0  0  0
  1  2  2  0
  2  3  1  0
  3  4  1  0
  4  5  1  0
  5  6  1  0
  6  7  1  0
  7  8  1  0
  8  9  1  0
  9 10  1  0
 10 11  1  0
 11 12  2  0
 11 13  1  0
 13 14  1  0
 14 15  2  0
 15 16  1  0
 16 17  1  0
 16 18  2  0
 18 19  1  0
 19 20  2  0
  9 21  1  0
 21 22  1  0
  2 23  1  0
 23 24  2  0
 24 25  1  0
 25 26  2  0
 26 27  1  0
 26 28  1  0
 28 29  2  0
 22  6  1  0
 29 23  1  0
 20 10  1  0
 20 14  1  0
M  END
>  <zinc_id>  (1) 
ZINC000000537818

>  <smiles>  (1) 
O=C(NCCN1CCC(n2c(=O)[nH]c3cc(Cl)ccc32)CC1)c1ccc(F)cc1

$$$$
