
     RDKit          3D

 31 33  0  0  0  0  0  0  0  0999 V2000
    5.4344   -2.4968   -1.0616 O   0  0  0  0  0  0  0  0  0  0  0  0
    5.8108   -1.5599   -0.3280 C   0  0  0  0  0  0  0  0  0  0  0  0
    4.9445   -1.1555    0.7115 N   0  0  0  0  0  0  0  0  0  0  0  0
    3.5758   -1.3753    0.7312 N   0  0  0  0  0  0  0  0  0  0  0  0
    2.7800   -0.6402   -0.2063 C   0  0  0  0  0  0  0  0  0  0  0  0
    3.1421   -0.7696   -1.4153 O   0  0  0  0  0  0  0  0  0  0  0  0
    1.3653   -0.4080    0.1155 C   0  0  0  0  0  0  0  0  0  0  0  0
    0.8763    0.8408    0.4336 C   0  0  0  0  0  0  0  0  0  0  0  0
   -0.4944    1.0111    0.5836 C   0  0  0  0  0  0  0  0  0  0  0  0
   -1.3437   -0.0863    0.5730 C   0  0  0  0  0  0  0  0  0  0  0  0
   -2.8048    0.0786    0.3556 C   0  0  0  0  0  0  0  0  0  0  0  0
   -2.9489    1.0523   -0.7233 N   0  0  0  0  0  0  0  0  0  0  0  0
   -4.1836    2.1664   -0.2194 S   0  0  0  0  0  0  0  0  0  0  0  0
   -3.6148    2.9128    0.9666 O   0  0  0  0  0  0  0  0  0  0  0  0
   -4.5531    3.1079   -1.3199 O   0  0  0  0  0  0  0  0  0  0  0  0
   -5.6058    1.2429    0.2436 C   0  0  0  0  0  0  0  0  0  0  0  0
   -6.8291    1.8466    0.4448 C   0  0  0  0  0  0  0  0  0  0  0  0
   -7.9840    1.0807    0.4621 C   0  0  0  0  0  0  0  0  0  0  0  0
   -7.9411   -0.2473    0.0529 C   0  0  0  0  0  0  0  0  0  0  0  0
   -8.9667   -0.8321   -0.6021 F   0  0  0  0  0  0  0  0  0  0  0  0
   -6.7187   -0.9011    0.1415 C   0  0  0  0  0  0  0  0  0  0  0  0
   -6.6520   -2.5572   -0.4363 Cl  0  0  0  0  0  0  0  0  0  0  0  0
   -5.5778   -0.1411    0.3477 C   0  0  0  0  0  0  0  0  0  0  0  0
   -0.7669   -1.3236    0.6853 C   0  0  0  0  0  0  0  0  0  0  0  0
    0.6022   -1.4911    0.5260 C   0  0  0  0  0  0  0  0  0  0  0  0
    7.1376   -0.9427   -0.4183 C   0  0  0  0  0  0  0  0  0  0  0  0
    7.4391   -0.0687   -1.4547 C   0  0  0  0  0  0  0  0  0  0  0  0
    8.2486    1.0378   -1.2323 C   0  0  0  0  0  0  0  0  0  0  0  0
    8.8077    1.2758    0.0166 C   0  0  0  0  0  0  0  0  0  0  0  0
    8.8794    0.1721    0.8565 C   0  0  0  0  0  0  0  0  0  0  0  0
    7.9415   -0.8293    0.7094 C   0  0  0  0  0  0  0  0  0  0  0  0
  1  2  2  0
  2  3  1  0
  3  4  1  0
  4  5  1  0
  5  6  2  0
  5  7  1  0
  7  8  2  0
  8  9  1  0
  9 10  2  0
 10 11  1  0
 11 12  1  0
 12 13  1  0
 13 14  2  0
 13 15  2  0
 13 16  1  0
 16 17  2  0
 17 18  1  0
 18 19  2  0
 19 20  1  0
 19 21  1  0
 21 22  1  0
 21 23  2  0
 10 24  1  0
 24 25  2  0
  2 26  1  0
 26 27  2  0
 27 28  1  0
 28 29  2  0
 29 30  1  0
 30 31  2  0
 25  7  1  0
 31 26  1  0
 23 16  1  0
M  END
>  <zinc_id>  (1) 
ZINC000009441787

>  <smiles>  (1) 
O=C(NNC(=O)c1ccc(CNS(=O)(=O)c2ccc(F)c(Cl)c2)cc1)c1ccccc1

$$$$
