
     RDKit          3D

 39 44  0  0  0  0  0  0  0  0999 V2000
    7.1473    0.6442    1.7041 C   0  0  0  0  0  0  0  0  0  0  0  0
    8.1006    0.7749    0.3416 C   0  0  2  0  0  0  0  0  0  0  0  0
    6.8767    1.5498   -0.4978 C   0  0  0  0  0  0  0  0  0  0  0  0
    7.1073    0.9776   -1.7835 N   0  0  0  0  0  0  0  0  0  0  0  0
    6.2917    1.3186   -2.8473 C   0  0  0  0  0  0  0  0  0  0  0  0
    4.9289    0.7239   -2.6689 C   0  0  0  0  0  0  0  0  0  0  0  0
    4.4633   -0.0685   -3.5318 O   0  0  0  0  0  0  0  0  0  0  0  0
    4.0537    1.2055   -1.6631 N   0  0  0  0  0  0  0  0  0  0  0  0
    2.7877    0.6221   -1.3704 C   0  0  0  0  0  0  0  0  0  0  0  0
    1.8069    0.6121   -2.3554 C   0  0  0  0  0  0  0  0  0  0  0  0
    0.4849    0.3384   -2.0246 C   0  0  0  0  0  0  0  0  0  0  0  0
    0.1540    0.1159   -0.6921 C   0  0  0  0  0  0  0  0  0  0  0  0
    1.1300   -0.0032    0.2913 C   0  0  0  0  0  0  0  0  0  0  0  0
    2.3843    0.4891   -0.0476 C   0  0  0  0  0  0  0  0  0  0  0  0
    0.9518   -1.0392    1.3474 C   0  0  0  0  0  0  0  0  0  0  0  0
   -0.2928   -0.8209    2.1352 C   0  0  0  0  0  0  0  0  0  0  0  0
   -0.3836   -1.5198    3.3332 C   0  0  0  0  0  0  0  0  0  0  0  0
   -1.3973   -1.1182    4.1835 C   0  0  0  0  0  0  0  0  0  0  0  0
   -2.5060   -0.4740    3.6474 C   0  0  0  0  0  0  0  0  0  0  0  0
   -2.6564   -0.2746    2.2821 C   0  0  0  0  0  0  0  0  0  0  0  0
   -3.9928   -0.4060    1.6901 C   0  0  0  0  0  0  0  0  0  0  0  0
   -5.0834   -0.6478    2.5201 C   0  0  0  0  0  0  0  0  0  0  0  0
   -6.1439   -1.3671    1.9819 C   0  0  0  0  0  0  0  0  0  0  0  0
   -6.9025   -2.0928    2.6644 O   0  0  0  0  0  0  0  0  0  0  0  0
   -6.2256   -1.3065    0.5949 C   0  0  0  0  0  0  0  0  0  0  0  0
   -5.4488   -0.3850   -0.0974 C   0  0  0  0  0  0  0  0  0  0  0  0
   -5.9723    0.3963   -1.1777 N   0  0  0  0  0  0  0  0  0  0  0  0
   -5.9627    1.8484   -1.0053 C   0  0  0  0  0  0  0  0  0  0  0  0
   -7.3884    2.1994   -0.5910 C   0  0  0  0  0  0  0  0  0  0  0  0
   -8.0139    1.1588    0.0671 O   0  0  0  0  0  0  0  0  0  0  0  0
   -8.3121    0.0936   -0.7971 C   0  0  0  0  0  0  0  0  0  0  0  0
   -7.1856   -0.1322   -1.7992 C   0  0  0  0  0  0  0  0  0  0  0  0
   -4.2692   -0.1408    0.4493 O   0  0  0  0  0  0  0  0  0  0  0  0
   -1.5142   -0.5382    1.5356 C   0  0  0  0  0  0  0  0  0  0  0  0
   -1.5563   -0.0659   -0.1708 S   0  0  0  0  0  0  0  0  0  0  0  0
    8.4696    0.7009   -1.9452 C   0  0  0  0  0  0  0  0  0  0  0  0
    8.7424   -0.7878   -1.2327 C   0  0  2  0  0  0  0  0  0  0  0  0
    7.6861   -1.5237   -2.2981 C   0  0  0  0  0  0  0  0  0  0  0  0
    7.6407   -0.6014   -0.1722 O   0  0  0  0  0  0  0  0  0  0  0  0
  2  1  1  1
  2  3  1  0
  3  4  1  0
  4  5  1  0
  5  6  1  0
  6  7  2  0
  6  8  1  0
  8  9  1  0
  9 10  2  0
 10 11  1  0
 11 12  2  0
 12 13  1  0
 13 14  2  0
 13 15  1  0
 15 16  1  0
 16 17  2  0
 17 18  1  0
 18 19  2  0
 19 20  1  0
 20 21  1  0
 21 22  2  0
 22 23  1  0
 23 24  2  0
 23 25  1  0
 25 26  2  0
 26 27  1  0
 27 28  1  0
 28 29  1  0
 29 30  1  0
 30 31  1  0
 31 32  1  0
 26 33  1  0
 20 34  2  0
 34 35  1  0
  4 36  1  0
 36 37  1  0
 37 38  1  6
 37 39  1  0
 39  2  1  0
 14  9  1  0
 34 16  1  0
 35 12  1  0
 33 21  1  0
 32 27  1  0
M  END
>  <zinc_id>  (1) 
ZINC000100071759

>  <smiles>  (1) 
C[C@H]1CN(CC(=O)Nc2ccc3c(c2)Cc2cccc(-c4cc(=O)cc(N5CCOCC5)o4)c2S3)C[C@@H](C)O1

$$$$
