
     RDKit          3D

 22 23  0  0  0  0  0  0  0  0999 V2000
    2.0439    0.3366   -0.2726 O   0  0  0  0  0  0  0  0  0  0  0  0
    1.6510   -0.8621   -0.1508 C   0  0  0  0  0  0  0  0  0  0  0  0
    0.1923   -1.0950   -0.2033 C   0  0  0  0  0  0  0  0  0  0  0  0
   -0.3801   -1.5684    1.1064 C   0  0  0  0  0  0  0  0  0  0  0  0
   -1.6744   -1.0032    1.3960 N   0  0  0  0  0  0  0  0  0  0  0  0
   -2.4393   -0.7560    0.2631 N   0  0  0  0  0  0  0  0  0  0  0  0
   -3.8429   -1.0215    0.1808 C   0  0  0  0  0  0  0  0  0  0  0  0
   -4.2497   -2.0086    0.8653 O   0  0  0  0  0  0  0  0  0  0  0  0
   -4.8141    0.0167   -0.1893 C   0  0  0  0  0  0  0  0  0  0  0  0
   -4.4944    0.7573   -1.3202 C   0  0  0  0  0  0  0  0  0  0  0  0
   -5.1600    1.9520   -1.5557 C   0  0  0  0  0  0  0  0  0  0  0  0
   -5.4941    2.6983   -0.4841 N   0  0  0  0  0  0  0  0  0  0  0  0
   -5.7965    2.0636    0.6735 C   0  0  0  0  0  0  0  0  0  0  0  0
   -5.5548    0.6989    0.7688 C   0  0  0  0  0  0  0  0  0  0  0  0
    2.5811   -1.7693    0.4297 N   0  0  0  0  0  0  0  0  0  0  0  0
    3.7092   -1.3100    1.2355 C   0  0  0  0  0  0  0  0  0  0  0  0
    4.5043   -0.2767    0.5331 C   0  0  0  0  0  0  0  0  0  0  0  0
    4.8875    0.8779    1.2011 C   0  0  0  0  0  0  0  0  0  0  0  0
    5.9947    1.5991    0.7807 C   0  0  0  0  0  0  0  0  0  0  0  0
    6.8540    1.0687   -0.1669 C   0  0  0  0  0  0  0  0  0  0  0  0
    6.3106    0.1320   -1.0356 C   0  0  0  0  0  0  0  0  0  0  0  0
    5.1719   -0.5303   -0.6501 C   0  0  0  0  0  0  0  0  0  0  0  0
  1  2  2  0
  2  3  1  0
  3  4  1  0
  4  5  1  0
  5  6  1  0
  6  7  1  0
  7  8  2  0
  7  9  1  0
  9 10  2  0
 10 11  1  0
 11 12  2  0
 12 13  1  0
 13 14  2  0
  2 15  1  0
 15 16  1  0
 16 17  1  0
 17 18  2  0
 18 19  1  0
 19 20  2  0
 20 21  1  0
 21 22  2  0
 14  9  1  0
 22 17  1  0
M  END
>  <zinc_id>  (1) 
ZINC000001713761

>  <smiles>  (1) 
O=C(CCNNC(=O)c1ccncc1)NCc1ccccc1

$$$$
