
     RDKit          3D

 24 26  0  0  0  0  0  0  0  0999 V2000
    5.6254    2.4205    1.0632 C   0  0  0  0  0  0  0  0  0  0  0  0
    5.5654    1.8116   -0.2405 N   0  0  0  0  0  0  0  0  0  0  0  0
    4.3090    2.1529   -0.8570 C   0  0  0  0  0  0  0  0  0  0  0  0
    3.2092    1.3478   -0.2133 C   0  0  0  0  0  0  0  0  0  0  0  0
    3.4167   -0.0397   -0.6180 N   0  0  0  0  0  0  0  0  0  0  0  0
    2.3866   -0.9962   -0.4803 C   0  0  0  0  0  0  0  0  0  0  0  0
    1.8565   -1.7087   -1.5478 C   0  0  0  0  0  0  0  0  0  0  0  0
    0.5181   -2.0859   -1.5567 C   0  0  0  0  0  0  0  0  0  0  0  0
   -0.2960   -1.8516   -0.4526 C   0  0  0  0  0  0  0  0  0  0  0  0
   -1.6911   -1.6259   -0.7297 C   0  0  0  0  0  0  0  0  0  0  0  0
   -2.4802   -0.8695   -0.0053 C   0  0  0  0  0  0  0  0  0  0  0  0
   -2.1219   -0.7197    1.3871 C   0  0  0  0  0  0  0  0  0  0  0  0
   -2.1323   -0.9757    2.5116 N   0  0  0  0  0  0  0  0  0  0  0  0
   -3.6573   -0.1719   -0.5375 C   0  0  0  0  0  0  0  0  0  0  0  0
   -4.9259   -0.7339   -0.4688 C   0  0  0  0  0  0  0  0  0  0  0  0
   -6.0184    0.0588   -0.1468 C   0  0  0  0  0  0  0  0  0  0  0  0
   -5.8918    1.4156    0.1243 C   0  0  0  0  0  0  0  0  0  0  0  0
   -4.7191    2.0052   -0.3269 C   0  0  0  0  0  0  0  0  0  0  0  0
   -3.6087    1.2088   -0.5795 C   0  0  0  0  0  0  0  0  0  0  0  0
   -1.9508    1.9852   -1.1265 Br  0  0  0  0  0  0  0  0  0  0  0  0
    0.3752   -1.5689    0.6976 C   0  0  0  0  0  0  0  0  0  0  0  0
    1.6598   -1.0450    0.7022 C   0  0  0  0  0  0  0  0  0  0  0  0
    4.7892   -0.4053   -0.9515 C   0  0  0  0  0  0  0  0  0  0  0  0
    5.7824    0.3912   -0.1312 C   0  0  0  0  0  0  0  0  0  0  0  0
  1  2  1  0
  2  3  1  0
  3  4  1  0
  4  5  1  0
  5  6  1  0
  6  7  2  0
  7  8  1  0
  8  9  2  0
  9 10  1  0
 10 11  2  0
 11 12  1  0
 12 13  3  0
 11 14  1  0
 14 15  2  0
 15 16  1  0
 16 17  2  0
 17 18  1  0
 18 19  2  0
 19 20  1  0
  9 21  1  0
 21 22  2  0
  5 23  1  0
 23 24  1  0
 24  2  1  0
 22  6  1  0
 19 14  1  0
M  END
>  <zinc_id>  (1) 
ZINC000084740552

>  <smiles>  (1) 
CN1CCN(c2ccc(/C=C(\C#N)c3ccccc3Br)cc2)CC1

$$$$
