REMARK SMILES CC(C)[C@H](CO)Nc1nc(Nc2cc(N)cc(Cl)c2)c2ncn(C(C)C)c2n1
REMARK SMILES IDX 8 1 28 2 27 3 20 4 21 5 22 6 23 7 10 8 9 9 7 10 4 11 2 12
REMARK SMILES IDX 1 13 3 14 5 15 6 16 11 17 12 18 13 19 19 20 14 21 17 22
REMARK SMILES IDX 15 23 16 24 18 25 24 26 25 27 26 28
REMARK H PARENT
REMARK Flexibility Score: inf
ROOT
ATOM      1  C   UNL     1      -1.441  -0.654  -0.200  1.00  0.00     0.227 A 
ATOM      2  N   UNL     1      -1.663   0.667   0.012  1.00  0.00    -0.193 NA
ATOM      3  C   UNL     1      -0.685   1.533   0.317  1.00  0.00     0.167 A 
ATOM      4  C   UNL     1       0.442   1.016   0.899  1.00  0.00     0.150 A 
ATOM      5  N   UNL     1       1.064   2.073   1.476  1.00  0.00    -0.231 NA
ATOM      6  C   UNL     1       0.649   3.146   0.770  1.00  0.00     0.097 A 
ATOM      7  N   UNL     1      -0.582   2.885   0.304  1.00  0.00    -0.313 N 
ATOM      8  C   UNL     1       0.493  -0.359   1.094  1.00  0.00     0.164 A 
ATOM      9  N   UNL     1      -0.281  -1.130   0.291  1.00  0.00    -0.193 NA
ENDROOT
BRANCH   1  10
ATOM     10  N   UNL     1      -2.274  -1.277  -1.119  1.00  0.00    -0.349 N 
BRANCH  10  11
ATOM     11  C   UNL     1      -3.369  -2.294  -0.584  1.00  0.00     0.054 C 
BRANCH  11  12
ATOM     12  C   UNL     1      -4.580  -1.480  -1.382  1.00  0.00    -0.024 C 
ATOM     13  C   UNL     1      -5.669  -2.376  -1.216  1.00  0.00    -0.061 C 
ATOM     14  C   UNL     1      -4.084  -1.352  -2.803  1.00  0.00    -0.061 C 
ENDBRANCH  11  12
BRANCH  11  15
ATOM     15  C   UNL     1      -3.655  -1.431   0.808  1.00  0.00     0.064 C 
ATOM     16  O   UNL     1      -2.888  -2.200   1.699  1.00  0.00    -0.394 OA
ENDBRANCH  11  15
ENDBRANCH  10  11
ENDBRANCH   1  10
BRANCH   8  17
ATOM     17  N   UNL     1       1.674  -0.897   1.701  1.00  0.00    -0.338 N 
BRANCH  17  18
ATOM     18  C   UNL     1       2.850  -1.034   0.898  1.00  0.00     0.043 A 
ATOM     19  C   UNL     1       3.372  -2.253   0.528  1.00  0.00    -0.015 A 
ATOM     20  C   UNL     1       3.240   0.091   0.183  1.00  0.00    -0.020 A 
ATOM     21  C   UNL     1       4.407  -2.332  -0.394  1.00  0.00     0.035 A 
ATOM     22  C   UNL     1       4.071   0.011  -0.921  1.00  0.00     0.045 A 
ATOM     23  N   UNL     1       5.408  -3.353  -0.322  1.00  0.00    -0.399 N 
ATOM     24  C   UNL     1       4.539  -1.247  -1.250  1.00  0.00    -0.020 A 
ATOM     25  Cl  UNL     1       4.220   1.365  -2.035  1.00  0.00    -0.084 Cl
ENDBRANCH  17  18
ENDBRANCH   8  17
BRANCH   7  26
ATOM     26  C   UNL     1      -1.657   3.824   0.053  1.00  0.00     0.031 C 
ATOM     27  C   UNL     1      -1.072   5.212  -0.104  1.00  0.00    -0.044 C 
ATOM     28  C   UNL     1      -2.530   3.847   1.297  1.00  0.00    -0.044 C 
ENDBRANCH   7  26
TORSDOF 7

