
     RDKit          3D

 34 39  0  0  0  0  0  0  0  0999 V2000
    0.6481    2.2680   -0.1688 N   0  0  0  0  0  0  0  0  0  0  0  0
   -0.2897    1.4597   -0.8318 C   0  0  0  0  0  0  0  0  0  0  0  0
   -1.1582    1.9476   -1.7521 N   0  0  0  0  0  0  0  0  0  0  0  0
   -2.2502    1.2038   -2.0625 C   0  0  0  0  0  0  0  0  0  0  0  0
   -2.7838    0.3233   -1.1735 N   0  0  0  0  0  0  0  0  0  0  0  0
   -1.9050   -0.2918   -0.3808 C   0  0  0  0  0  0  0  0  0  0  0  0
   -0.6114    0.2178   -0.2922 C   0  0  0  0  0  0  0  0  0  0  0  0
    0.0367   -0.4638    0.7352 C   0  0  0  0  0  0  0  0  0  0  0  0
    1.4962   -0.5871    0.6245 C   0  0  0  0  0  0  0  0  0  0  0  0
    2.0181   -1.7828    0.1366 C   0  0  0  0  0  0  0  0  0  0  0  0
    3.2796   -1.6637   -0.4364 C   0  0  0  0  0  0  0  0  0  0  0  0
    3.9822   -0.4741   -0.3131 C   0  0  0  0  0  0  0  0  0  0  0  0
    3.6626    0.3214    0.7832 C   0  0  0  0  0  0  0  0  0  0  0  0
    4.3209    1.5561    0.8260 O   0  0  0  0  0  0  0  0  0  0  0  0
    5.1328    2.0409   -0.2182 C   0  0  0  0  0  0  0  0  0  0  0  0
    6.4463    1.4042   -0.0898 C   0  0  0  0  0  0  0  0  0  0  0  0
    7.0151    0.5429   -1.0041 C   0  0  0  0  0  0  0  0  0  0  0  0
    7.8456   -0.5033   -0.6147 C   0  0  0  0  0  0  0  0  0  0  0  0
    8.2462   -0.5409    0.7178 C   0  0  0  0  0  0  0  0  0  0  0  0
    8.0591    0.6141    1.4699 C   0  0  0  0  0  0  0  0  0  0  0  0
    7.1340    1.5814    1.0933 C   0  0  0  0  0  0  0  0  0  0  0  0
    2.3953    0.1606    1.3402 C   0  0  0  0  0  0  0  0  0  0  0  0
   -0.8687   -1.4717    1.0573 C   0  0  0  0  0  0  0  0  0  0  0  0
   -2.0897   -1.1512    0.5606 N   0  0  0  0  0  0  0  0  0  0  0  0
   -3.2847   -1.3001    1.5634 C   0  0  1  0  0  0  0  0  0  0  0  0
   -4.3870   -0.3936    0.7607 C   0  0  0  0  0  0  0  0  0  0  0  0
   -5.2588   -1.7233    1.1051 C   0  0  1  0  0  0  0  0  0  0  0  0
   -5.8852   -1.8256   -0.4028 C   0  0  0  0  0  0  0  0  0  0  0  0
   -6.6446   -0.6704   -0.4923 N   0  0  0  0  0  0  0  0  0  0  0  0
   -7.7715   -0.4509    0.2993 C   0  0  0  0  0  0  0  0  0  0  0  0
   -8.5178    0.7319   -0.3010 C   0  0  0  0  0  0  0  0  0  0  0  0
   -7.5917    1.2535   -1.3549 C   0  0  0  0  0  0  0  0  0  0  0  0
   -6.5016    0.2310   -1.5438 C   0  0  0  0  0  0  0  0  0  0  0  0
   -3.9193   -2.5639    0.7313 C   0  0  0  0  0  0  0  0  0  0  0  0
  1  2  1  0
  2  3  2  0
  3  4  1  0
  4  5  2  0
  5  6  1  0
  6  7  2  0
  7  8  1  0
  8  9  1  0
  9 10  2  0
 10 11  1  0
 11 12  2  0
 12 13  1  0
 13 14  1  0
 14 15  1  0
 15 16  1  0
 16 17  2  0
 17 18  1  0
 18 19  2  0
 19 20  1  0
 20 21  2  0
 13 22  2  0
  8 23  2  0
 23 24  1  0
 25 24  1  6
 25 26  1  0
 26 27  1  0
 27 28  1  6
 28 29  1  0
 29 30  1  0
 30 31  1  0
 31 32  1  0
 32 33  1  0
 27 34  1  0
  7  2  1  0
 22  9  1  0
 34 25  1  0
 24  6  1  0
 33 29  1  0
 21 16  1  0
M  END
>  <zinc_id>  (1) 
ZINC000103588519

>  <smiles>  (1) 
Nc1ncnc2c1c(-c1cccc(OCc3ccccc3)c1)cn2[C@@H]1C[C@H](CN2CCCC2)C1

$$$$
