REMARK SMILES CN(C(=O)c1ccc(F)cc1C(F)(F)F)C1CCN(c2nnc(-c3ccnn3C)c3ccccc23)CC1
REMARK SMILES IDX 1 1 2 2 3 3 4 4 5 5 6 6 11 7 7 8 10 9 8 10 9 11 12 12 13 13
REMARK SMILES IDX 14 14 15 15 16 16 17 17 37 18 18 19 36 20 19 21 20 22 21 23
REMARK SMILES IDX 35 24 22 25 30 26 34 27 23 28 31 29 33 30 32 31 24 32 25 33
REMARK SMILES IDX 28 34 26 35 27 36 29 37
REMARK H PARENT
REMARK Flexibility Score: inf
ROOT
ATOM      1  C   UNL     1       1.952   1.720   0.180  1.00  0.00     0.010 C 
ATOM      2  N   UNL     1       2.678   0.501  -0.168  1.00  0.00    -0.339 N 
ENDROOT
BRANCH   2   3
ATOM      3  C   UNL     1       4.043   0.649  -0.486  1.00  0.00     0.254 C 
ATOM      4  O   UNL     1       4.321   1.438  -1.440  1.00  0.00    -0.269 OA
BRANCH   3   5
ATOM      5  C   UNL     1       5.080  -0.330  -0.147  1.00  0.00     0.052 A 
ATOM      6  C   UNL     1       5.625  -1.183  -1.099  1.00  0.00    -0.046 A 
ATOM      7  C   UNL     1       5.912  -0.040   0.928  1.00  0.00     0.071 A 
ATOM      8  C   UNL     1       6.929  -1.651  -1.005  1.00  0.00    -0.025 A 
ATOM      9  C   UNL     1       7.266  -0.350   0.912  1.00  0.00    -0.013 A 
ATOM     10  C   UNL     1       7.828  -0.958  -0.205  1.00  0.00     0.123 A 
ATOM     11  F   UNL     1       9.128  -0.840  -0.526  1.00  0.00    -0.207 F 
BRANCH   7  12
ATOM     12  C   UNL     1       5.257   0.489   2.160  1.00  0.00     0.417 C 
ATOM     13  F   UNL     1       5.081   1.855   2.112  1.00  0.00    -0.166 F 
ATOM     14  F   UNL     1       4.098  -0.190   2.466  1.00  0.00    -0.166 F 
ATOM     15  F   UNL     1       6.132   0.246   3.215  1.00  0.00    -0.166 F 
ENDBRANCH   7  12
ENDBRANCH   3   5
ENDBRANCH   2   3
BRANCH   2  16
ATOM     16  C   UNL     1       1.861  -0.620  -0.612  1.00  0.00     0.035 C 
ATOM     17  C   UNL     1       1.228  -0.339  -1.944  1.00  0.00    -0.015 C 
ATOM     18  C   UNL     1       0.744  -0.766   0.414  1.00  0.00    -0.015 C 
ATOM     19  C   UNL     1      -0.201  -0.799  -2.037  1.00  0.00     0.021 C 
ATOM     20  C   UNL     1      -0.352   0.258   0.196  1.00  0.00     0.021 C 
ATOM     21  N   UNL     1      -1.006  -0.060  -1.070  1.00  0.00    -0.354 N 
BRANCH  21  22
ATOM     22  C   UNL     1      -2.418  -0.293  -0.988  1.00  0.00     0.159 A 
ATOM     23  N   UNL     1      -2.801  -1.237  -0.095  1.00  0.00    -0.132 NA
ATOM     24  C   UNL     1      -3.344   0.709  -1.237  1.00  0.00     0.028 A 
ATOM     25  N   UNL     1      -4.063  -1.385   0.288  1.00  0.00    -0.146 NA
ATOM     26  C   UNL     1      -4.577   0.694  -0.596  1.00  0.00     0.015 A 
ATOM     27  C   UNL     1      -2.919   1.920  -1.760  1.00  0.00    -0.051 A 
ATOM     28  C   UNL     1      -4.942  -0.355   0.238  1.00  0.00     0.119 A 
ATOM     29  C   UNL     1      -5.578   1.582  -0.967  1.00  0.00    -0.052 A 
ATOM     30  C   UNL     1      -3.860   2.894  -2.051  1.00  0.00    -0.061 A 
ATOM     31  C   UNL     1      -5.199   2.640  -1.784  1.00  0.00    -0.062 A 
BRANCH  28  32
ATOM     32  C   UNL     1      -6.322  -0.490   0.722  1.00  0.00     0.089 A 
ATOM     33  C   UNL     1      -6.710  -0.376   2.050  1.00  0.00    -0.014 A 
ATOM     34  N   UNL     1      -7.290  -1.248   0.157  1.00  0.00    -0.266 N 
ATOM     35  C   UNL     1      -7.935  -0.999   2.216  1.00  0.00     0.050 A 
ATOM     36  N   UNL     1      -8.347  -1.287   0.963  1.00  0.00    -0.181 NA
ATOM     37  C   UNL     1      -7.297  -1.798  -1.170  1.00  0.00     0.030 C 
ENDBRANCH  28  32
ENDBRANCH  21  22
ENDBRANCH   2  16
TORSDOF 6

