
     RDKit          3D

 21 23  0  0  0  0  0  0  0  0999 V2000
   -4.0498    1.2197   -1.6679 C   0  0  0  0  0  0  0  0  0  0  0  0
   -3.0406    1.4101   -0.5550 C   0  0  0  0  0  0  0  0  0  0  0  0
   -2.5688    2.8563   -0.6459 C   0  0  0  0  0  0  0  0  0  0  0  0
   -3.7475    1.2147    0.7555 C   0  0  0  0  0  0  0  0  0  0  0  0
   -1.9263    0.4817   -0.7295 N   0  0  0  0  0  0  0  0  0  0  0  0
   -0.6975    0.8403   -1.0784 N   0  0  0  0  0  0  0  0  0  0  0  0
    0.2138   -0.0144   -0.5913 C   0  0  0  0  0  0  0  0  0  0  0  0
    1.6150    0.2962   -0.2752 C   0  0  0  0  0  0  0  0  0  0  0  0
    2.6668   -0.2453   -0.9996 C   0  0  0  0  0  0  0  0  0  0  0  0
    3.9662    0.0584   -0.6181 C   0  0  0  0  0  0  0  0  0  0  0  0
    4.2002    1.1047    0.2636 C   0  0  0  0  0  0  0  0  0  0  0  0
    5.7692    1.3404    1.0282 Cl  0  0  0  0  0  0  0  0  0  0  0  0
    3.1005    1.8817    0.5955 C   0  0  0  0  0  0  0  0  0  0  0  0
    1.8659    1.2521    0.6986 C   0  0  0  0  0  0  0  0  0  0  0  0
   -0.5304   -1.0949   -0.1350 C   0  0  0  0  0  0  0  0  0  0  0  0
   -1.8444   -0.6700   -0.0222 C   0  0  0  0  0  0  0  0  0  0  0  0
   -2.7363   -1.4915    0.5512 N   0  0  0  0  0  0  0  0  0  0  0  0
   -2.2918   -2.5329    1.2940 C   0  0  0  0  0  0  0  0  0  0  0  0
   -1.0664   -3.0212    1.0406 N   0  0  0  0  0  0  0  0  0  0  0  0
   -0.1263   -2.3321    0.3494 C   0  0  0  0  0  0  0  0  0  0  0  0
    1.2286   -2.5540    0.7417 N   0  0  0  0  0  0  0  0  0  0  0  0
  1  2  1  0
  2  3  1  0
  2  4  1  0
  2  5  1  0
  5  6  1  0
  6  7  2  0
  7  8  1  0
  8  9  2  0
  9 10  1  0
 10 11  2  0
 11 12  1  0
 11 13  1  0
 13 14  2  0
  7 15  1  0
 15 16  2  0
 16 17  1  0
 17 18  2  0
 18 19  1  0
 19 20  2  0
 20 21  1  0
 16  5  1  0
 14  8  1  0
 20 15  1  0
M  END
>  <zinc_id>  (1) 
ZINC000001383151

>  <smiles>  (1) 
CC(C)(C)n1nc(-c2ccc(Cl)cc2)c2c(N)ncnc21

$$$$
