REMARK SMILES Cc1ccc(Sc2cncc3sc(C(N)=O)cc23)cc1
REMARK SMILES IDX 7 1 8 2 9 3 10 4 11 5 12 6 13 7 17 8 18 9 6 10 5 11 1 12
REMARK SMILES IDX 2 13 3 14 20 15 4 16 19 17 14 18 15 19 16 20
REMARK H PARENT
REMARK Flexibility Score: inf
ROOT
ATOM      1  C   UNL     1      -0.347  -1.141  -1.217  1.00  0.00     0.039 A 
ATOM      2  C   UNL     1      -0.469  -2.435  -1.709  1.00  0.00     0.041 A 
ATOM      3  N   UNL     1      -1.627  -2.893  -2.245  1.00  0.00    -0.262 NA
ATOM      4  C   UNL     1      -2.722  -2.098  -2.146  1.00  0.00     0.045 A 
ATOM      5  C   UNL     1      -2.694  -0.919  -1.407  1.00  0.00     0.055 A 
ATOM      6  S   UNL     1      -3.837   0.018  -0.531  1.00  0.00    -0.128 S 
ATOM      7  C   UNL     1      -2.761   1.080   0.282  1.00  0.00     0.093 A 
ATOM      8  C   UNL     1      -1.611   0.839  -0.436  1.00  0.00    -0.029 A 
ATOM      9  C   UNL     1      -1.506  -0.464  -0.844  1.00  0.00     0.010 A 
ENDROOT
BRANCH   1  10
ATOM     10  S   UNL     1       1.201  -0.274  -1.498  1.00  0.00    -0.088 SA
BRANCH  10  11
ATOM     11  C   UNL     1       2.289  -0.366  -0.106  1.00  0.00     0.012 A 
ATOM     12  C   UNL     1       5.572   1.483   1.800  1.00  0.00    -0.040 C 
ATOM     13  C   UNL     1       4.412   0.621   1.463  1.00  0.00    -0.051 A 
ATOM     14  C   UNL     1       3.120   1.020   1.702  1.00  0.00    -0.058 A 
ATOM     15  C   UNL     1       4.581  -0.474   0.626  1.00  0.00    -0.058 A 
ATOM     16  C   UNL     1       2.068   0.451   0.996  1.00  0.00    -0.048 A 
ATOM     17  C   UNL     1       3.566  -0.903  -0.215  1.00  0.00    -0.048 A 
ENDBRANCH  10  11
ENDBRANCH   1  10
BRANCH   7  18
ATOM     18  C   UNL     1      -2.977   1.936   1.451  1.00  0.00     0.258 C 
ATOM     19  N   UNL     1      -3.941   1.532   2.431  1.00  0.00    -0.365 N 
ATOM     20  O   UNL     1      -2.319   2.986   1.603  1.00  0.00    -0.269 OA
ENDBRANCH   7  18
TORSDOF 3

