
     RDKit          3D

 32 33  0  0  0  0  0  0  0  0999 V2000
   -5.1498   -1.4013    2.8519 C   0  0  0  0  0  0  0  0  0  0  0  0
   -4.1262   -0.7411    2.5000 N   0  0  0  0  0  0  0  0  0  0  0  0
   -3.4540   -1.1384    1.3245 C   0  0  0  0  0  0  0  0  0  0  0  0
   -3.8215   -1.9666    0.5036 O   0  0  0  0  0  0  0  0  0  0  0  0
   -2.2501   -0.1227    0.8623 C   0  0  2  0  0  0  0  0  0  0  0  0
   -2.9411    0.1464   -0.6450 C   0  0  0  0  0  0  0  0  0  0  0  0
   -3.6990    1.4024   -0.4717 C   0  0  0  0  0  0  0  0  0  0  0  0
   -4.9458    1.3352    0.1241 C   0  0  0  0  0  0  0  0  0  0  0  0
   -5.6603    2.5245    0.2062 C   0  0  0  0  0  0  0  0  0  0  0  0
   -4.9284    3.7048    0.1728 C   0  0  0  0  0  0  0  0  0  0  0  0
   -3.7957    3.7507   -0.6314 C   0  0  0  0  0  0  0  0  0  0  0  0
   -3.3065    2.5465   -1.1231 C   0  0  0  0  0  0  0  0  0  0  0  0
   -1.3673   -1.3368    0.2894 N   0  0  0  0  0  0  0  0  0  0  0  0
   -0.0202   -0.8419    0.2328 C   0  0  0  0  0  0  0  0  0  0  0  0
    0.5131   -0.6759    1.3384 O   0  0  0  0  0  0  0  0  0  0  0  0
    0.7792   -1.7492   -0.8356 C   0  0  2  0  0  0  0  0  0  0  0  0
    0.9116   -2.9790    0.2494 C   0  0  0  0  0  0  0  0  0  0  0  0
    2.0100   -3.8678   -0.2155 C   0  0  0  0  0  0  0  0  0  0  0  0
    1.4137   -5.1128   -0.8495 C   0  0  0  0  0  0  0  0  0  0  0  0
    2.7821   -4.3143    1.0213 C   0  0  0  0  0  0  0  0  0  0  0  0
    2.3456   -1.1098   -0.4581 C   0  0  2  0  0  0  0  0  0  0  0  0
    1.8660    0.4674   -0.4485 C   0  0  0  0  0  0  0  0  0  0  0  0
    3.2686    1.4400   -1.0010 S   0  0  0  0  0  0  0  0  0  0  0  0
    3.9223    2.4226    0.3335 C   0  0  0  0  0  0  0  0  0  0  0  0
    5.2217    2.8920    0.4848 C   0  0  0  0  0  0  0  0  0  0  0  0
    5.2501    4.0534    1.2072 C   0  0  0  0  0  0  0  0  0  0  0  0
    4.5211    3.9272    2.3860 C   0  0  0  0  0  0  0  0  0  0  0  0
    3.2504    2.9101    1.8346 S   0  0  0  0  0  0  0  0  0  0  0  0
    2.7606   -1.0408   -2.0134 C   0  0  0  0  0  0  0  0  0  0  0  0
    1.9380   -0.4868   -2.7795 O   0  0  0  0  0  0  0  0  0  0  0  0
    3.3470   -2.2278   -2.5496 N   0  0  0  0  0  0  0  0  0  0  0  0
    3.3647   -2.4104   -3.9008 O   0  0  0  0  0  0  0  0  0  0  0  0
  1  2  1  0
  2  3  1  0
  3  4  2  0
  5  3  1  1
  5  6  1  0
  6  7  1  0
  7  8  2  0
  8  9  1  0
  9 10  2  0
 10 11  1  0
 11 12  2  0
  5 13  1  0
 13 14  1  0
 14 15  2  0
 16 14  1  1
 16 17  1  0
 17 18  1  0
 18 19  1  0
 18 20  1  0
 16 21  1  0
 21 22  1  6
 22 23  1  0
 23 24  1  0
 24 25  2  0
 25 26  1  0
 26 27  2  0
 27 28  1  0
 21 29  1  0
 29 30  2  0
 29 31  1  0
 31 32  1  0
 12  7  1  0
 28 24  1  0
M  END
>  <zinc_id>  (1) 
ZINC000003789788

>  <smiles>  (1) 
CNC(=O)[C@H](Cc1ccccc1)NC(=O)[C@H](CC(C)C)[C@H](CSc1cccs1)C(=O)NO

$$$$
