REMARK SMILES CCN1CCN(Cc2ccc(C(=O)Nc3ccc(C)c(Oc4ccc5c(c4)CC(=O)N5)c3)cc2C(F)(F)F)CC1
REMARK SMILES IDX 8 1 9 2 10 3 11 4 33 5 34 6 7 7 6 8 3 9 4 10 40 11 5 12
REMARK SMILES IDX 39 13 2 14 1 15 35 16 36 17 37 18 38 19 12 20 13 21 14 22
REMARK SMILES IDX 15 23 16 24 32 25 17 26 20 27 18 28 19 29 21 30 22 31 23 32
REMARK SMILES IDX 27 33 24 34 26 35 25 36 28 37 31 38 29 39 30 40
REMARK H PARENT
REMARK Flexibility Score: inf
ROOT
ATOM      1  C   UNL     1       4.014   0.011  -0.505  1.00  0.00    -0.022 A 
ATOM      2  C   UNL     1       3.549   1.062  -1.249  1.00  0.00    -0.056 A 
ATOM      3  C   UNL     1       2.462   1.782  -0.829  1.00  0.00    -0.049 A 
ATOM      4  C   UNL     1       1.854   1.575   0.403  1.00  0.00     0.040 A 
ATOM      5  C   UNL     1       2.269   0.436   1.084  1.00  0.00    -0.037 A 
ATOM      6  C   UNL     1       3.276  -0.388   0.596  1.00  0.00     0.061 A 
ENDROOT
BRANCH   1   7
ATOM      7  C   UNL     1       5.435  -0.448  -0.576  1.00  0.00     0.024 C 
BRANCH   7   8
ATOM      8  N   UNL     1       5.833  -0.766  -1.931  1.00  0.00    -0.297 NA
ATOM      9  N   UNL     1       8.519  -0.022  -1.401  1.00  0.00    -0.301 NA
ATOM     10  C   UNL     1       7.877   0.411  -2.616  1.00  0.00     0.011 C 
ATOM     11  C   UNL     1       7.890  -1.172  -0.802  1.00  0.00     0.011 C 
ATOM     12  C   UNL     1       6.375   0.453  -2.509  1.00  0.00     0.011 C 
ATOM     13  C   UNL     1       6.924  -1.734  -1.839  1.00  0.00     0.011 C 
BRANCH   9  14
ATOM     14  C   UNL     1       8.691   1.035  -0.436  1.00  0.00    -0.005 C 
ATOM     15  C   UNL     1       8.970   0.370   0.906  1.00  0.00    -0.052 C 
ENDBRANCH   9  14
ENDBRANCH   7   8
ENDBRANCH   1   7
BRANCH   6  16
ATOM     16  C   UNL     1       3.791  -1.515   1.434  1.00  0.00     0.416 C 
ATOM     17  F   UNL     1       4.324  -2.526   0.676  1.00  0.00    -0.166 F 
ATOM     18  F   UNL     1       4.731  -0.953   2.289  1.00  0.00    -0.166 F 
ATOM     19  F   UNL     1       2.723  -1.951   2.195  1.00  0.00    -0.166 F 
ENDBRANCH   6  16
BRANCH   4  20
ATOM     20  C   UNL     1       0.417   1.866   0.507  1.00  0.00     0.255 C 
ATOM     21  O   UNL     1      -0.034   1.934   1.691  1.00  0.00    -0.269 OA
ATOM     22  N   UNL     1      -0.511   1.560  -0.509  1.00  0.00    -0.322 N 
BRANCH  22  23
ATOM     23  C   UNL     1      -1.755   0.899  -0.288  1.00  0.00     0.045 A 
ATOM     24  C   UNL     1      -1.847  -0.329   0.355  1.00  0.00    -0.038 A 
ATOM     25  C   UNL     1      -2.848   1.220  -1.086  1.00  0.00     0.005 A 
ATOM     26  C   UNL     1      -2.579  -1.376  -0.194  1.00  0.00    -0.054 A 
ATOM     27  C   UNL     1      -3.791   0.254  -1.419  1.00  0.00     0.132 A 
ATOM     28  C   UNL     1      -3.575  -1.085  -1.119  1.00  0.00    -0.008 A 
ATOM     29  C   UNL     1      -4.062  -2.116  -2.087  1.00  0.00    -0.036 C 
BRANCH  27  30
ATOM     30  O   UNL     1      -5.022   0.589  -1.991  1.00  0.00    -0.457 OA
BRANCH  30  31
ATOM     31  C   UNL     1      -6.136   0.435  -1.159  1.00  0.00     0.127 A 
ATOM     32  C   UNL     1      -7.061  -0.578  -1.345  1.00  0.00    -0.017 A 
ATOM     33  C   UNL     1      -6.297   1.205  -0.017  1.00  0.00    -0.014 A 
ATOM     34  C   UNL     1      -7.902  -0.971  -0.315  1.00  0.00    -0.035 A 
ATOM     35  C   UNL     1      -7.091   0.823   1.037  1.00  0.00    -0.011 A 
ATOM     36  C   UNL     1      -7.868  -0.321   0.908  1.00  0.00     0.045 A 
ATOM     37  C   UNL     1      -7.004   1.177   2.487  1.00  0.00     0.054 C 
ATOM     38  N   UNL     1      -8.405  -0.704   2.158  1.00  0.00    -0.326 N 
ATOM     39  C   UNL     1      -8.006   0.277   3.122  1.00  0.00     0.228 C 
ATOM     40  O   UNL     1      -8.133   0.143   4.375  1.00  0.00    -0.274 OA
ENDBRANCH  30  31
ENDBRANCH  27  30
ENDBRANCH  22  23
ENDBRANCH   4  20
TORSDOF 8

