REMARK SMILES Nc1ccn([C@H]2C[C@H](O)[C@@H](CO)O2)c(=O)n1
REMARK SMILES IDX 6 1 7 2 8 3 9 4 10 5 13 6 5 7 1 8 2 9 3 10 16 11 4 12 14 13
REMARK SMILES IDX 15 14 11 15 12 16
REMARK H PARENT
REMARK Flexibility Score: inf
ROOT
ATOM      1  C   UNL     1       0.406   0.061   0.410  1.00  0.00     0.141 C 
ATOM      2  C   UNL     1       1.673  -0.942   0.756  1.00  0.00     0.022 C 
ATOM      3  C   UNL     1       2.825   0.212   0.565  1.00  0.00     0.087 C 
ATOM      4  O   UNL     1       2.533   0.783   1.935  1.00  0.00    -0.390 OA
ATOM      5  C   UNL     1       1.748   1.341  -0.175  1.00  0.00     0.109 C 
ATOM      6  O   UNL     1       1.048   0.256  -0.970  1.00  0.00    -0.349 OA
ENDROOT
BRANCH   1   7
ATOM      7  N   UNL     1      -0.544  -1.135  -0.068  1.00  0.00    -0.272 N 
ATOM      8  N   UNL     1      -4.071  -0.147   1.165  1.00  0.00    -0.383 N 
ATOM      9  C   UNL     1      -3.259  -0.768   0.624  1.00  0.00     0.130 A 
ATOM     10  C   UNL     1      -2.444  -1.669   1.312  1.00  0.00    -0.003 A 
ATOM     11  N   UNL     1      -2.792  -0.574  -0.639  1.00  0.00    -0.176 NA
ATOM     12  C   UNL     1      -1.086  -1.773   1.003  1.00  0.00     0.015 A 
ATOM     13  C   UNL     1      -1.470  -0.654  -0.936  1.00  0.00     0.351 A 
ATOM     14  O   UNL     1      -0.971  -0.140  -1.979  1.00  0.00    -0.246 OA
ENDBRANCH   1   7
BRANCH   5  15
ATOM     15  C   UNL     1       2.747   1.736  -1.412  1.00  0.00     0.072 C 
ATOM     16  O   UNL     1       3.657   0.754  -1.592  1.00  0.00    -0.394 OA
ENDBRANCH   5  15
TORSDOF 2

