REMARK SMILES Cc1cc(C)nc(SCC(=O)Nc2ncc(Cc3cccc4ccccc34)s2)n1
REMARK SMILES IDX 10 1 11 2 12 3 9 4 8 5 7 6 1 7 2 8 3 9 29 10 4 11 5 12 6 13
REMARK SMILES IDX 13 14 14 15 28 16 15 17 16 18 17 19 18 20 19 21 27 22 20 23
REMARK SMILES IDX 22 24 26 25 21 26 23 27 25 28 24 29
REMARK H PARENT
REMARK Flexibility Score: inf
ROOT
ATOM      1  C   UNL     1       1.732   0.215  -1.308  1.00  0.00     0.236 C 
ATOM      2  O   UNL     1       1.847  -0.807  -0.568  1.00  0.00    -0.274 OA
ATOM      3  N   UNL     1       0.497   0.884  -1.271  1.00  0.00    -0.301 N 
ENDROOT
BRANCH   1   4
ATOM      4  C   UNL     1       2.998   0.803  -1.820  1.00  0.00     0.081 C 
BRANCH   4   5
ATOM      5  S   UNL     1       4.069   1.091  -0.379  1.00  0.00    -0.076 SA
BRANCH   5   6
ATOM      6  C   UNL     1       5.566   0.136  -0.522  1.00  0.00     0.188 A 
ATOM      7  C   UNL     1       8.716  -0.239   1.378  1.00  0.00    -0.022 C 
ATOM      8  C   UNL     1       7.627  -0.429   0.370  1.00  0.00     0.042 A 
ATOM      9  C   UNL     1       7.868  -1.257  -0.707  1.00  0.00    -0.019 A 
ATOM     10  N   UNL     1       6.491   0.297   0.452  1.00  0.00    -0.228 NA
ATOM     11  C   UNL     1       7.015  -1.098  -1.792  1.00  0.00     0.042 A 
ATOM     12  C   UNL     1       7.316  -1.858  -3.037  1.00  0.00    -0.022 C 
ATOM     13  N   UNL     1       5.982  -0.237  -1.743  1.00  0.00    -0.228 NA
ENDBRANCH   5   6
ENDBRANCH   4   5
ENDBRANCH   1   4
BRANCH   3  14
ATOM     14  C   UNL     1      -0.360   0.909  -0.155  1.00  0.00     0.189 A 
ATOM     15  N   UNL     1      -0.492   0.048   0.883  1.00  0.00    -0.228 NA
ATOM     16  S   UNL     1      -1.919   1.627  -0.105  1.00  0.00    -0.101 S 
ATOM     17  C   UNL     1      -1.154   0.603   1.899  1.00  0.00     0.044 A 
ATOM     18  C   UNL     1      -2.366   1.145   1.484  1.00  0.00     0.031 A 
BRANCH  18  19
ATOM     19  C   UNL     1      -3.657   1.231   2.213  1.00  0.00     0.009 C 
BRANCH  19  20
ATOM     20  C   UNL     1      -4.488   0.086   1.725  1.00  0.00    -0.035 A 
ATOM     21  C   UNL     1      -3.872  -1.149   1.718  1.00  0.00    -0.058 A 
ATOM     22  C   UNL     1      -5.444   0.347   0.772  1.00  0.00    -0.015 A 
ATOM     23  C   UNL     1      -4.387  -2.236   1.023  1.00  0.00    -0.061 A 
ATOM     24  C   UNL     1      -5.988  -0.701   0.059  1.00  0.00    -0.018 A 
ATOM     25  C   UNL     1      -6.028   1.579   0.628  1.00  0.00    -0.054 A 
ATOM     26  C   UNL     1      -5.420  -1.945   0.144  1.00  0.00    -0.054 A 
ATOM     27  C   UNL     1      -7.259  -0.603  -0.443  1.00  0.00    -0.054 A 
ATOM     28  C   UNL     1      -7.101   1.746  -0.217  1.00  0.00    -0.062 A 
ATOM     29  C   UNL     1      -7.786   0.637  -0.683  1.00  0.00    -0.062 A 
ENDBRANCH  19  20
ENDBRANCH  18  19
ENDBRANCH   3  14
TORSDOF 6

