
     RDKit          3D

 35 39  0  0  0  0  0  0  0  0999 V2000
    2.9650   -0.2179    3.4682 C   0  0  0  0  0  0  0  0  0  0  0  0
    4.0343   -0.2420    3.3162 O   0  0  0  0  0  0  0  0  0  0  0  0
    4.2026   -1.1193    2.0644 C   0  0  1  0  0  0  0  0  0  0  0  0
    3.5328   -0.0385    1.0363 C   0  0  0  0  0  0  0  0  0  0  0  0
    3.3863    1.1168    1.4388 O   0  0  0  0  0  0  0  0  0  0  0  0
    3.8969   -0.3332   -0.3268 N   0  0  0  0  0  0  0  0  0  0  0  0
    4.2584    0.7656   -1.2308 C   0  0  0  0  0  0  0  0  0  0  0  0
    2.8899    1.2968   -1.5345 C   0  0  0  0  0  0  0  0  0  0  0  0
    2.0547    2.3103   -1.1999 N   0  0  0  0  0  0  0  0  0  0  0  0
    0.7921    1.9640   -1.4433 N   0  0  0  0  0  0  0  0  0  0  0  0
    0.8211    0.6411   -1.7422 C   0  0  0  0  0  0  0  0  0  0  0  0
   -0.3323   -0.0975   -2.1656 N   0  0  0  0  0  0  0  0  0  0  0  0
   -1.6403    0.4278   -1.9060 C   0  0  0  0  0  0  0  0  0  0  0  0
   -1.6540    1.2873   -0.9697 O   0  0  0  0  0  0  0  0  0  0  0  0
   -2.8678   -0.3137   -2.2324 C   0  0  0  0  0  0  0  0  0  0  0  0
   -3.2371   -1.4661   -1.5441 C   0  0  0  0  0  0  0  0  0  0  0  0
   -4.5116   -1.5903   -0.9952 C   0  0  0  0  0  0  0  0  0  0  0  0
   -5.4588   -0.5778   -1.1233 C   0  0  0  0  0  0  0  0  0  0  0  0
   -6.2228   -0.1110   -0.0033 N   0  0  0  0  0  0  0  0  0  0  0  0
   -6.4991    1.2968    0.0701 C   0  0  0  0  0  0  0  0  0  0  0  0
   -7.1673    1.7605    1.3054 C   0  0  0  0  0  0  0  0  0  0  0  0
   -7.7854    0.6861    2.0759 N   0  0  0  0  0  0  0  0  0  0  0  0
   -8.7530   -0.0162    1.2362 C   0  0  0  0  0  0  0  0  0  0  0  0
   -6.6634   -0.1847    2.4218 C   0  0  0  0  0  0  0  0  0  0  0  0
   -6.2512   -0.9579    1.1780 C   0  0  0  0  0  0  0  0  0  0  0  0
   -5.2412    0.2017   -2.2550 C   0  0  0  0  0  0  0  0  0  0  0  0
   -3.9681    0.3046   -2.8230 C   0  0  0  0  0  0  0  0  0  0  0  0
    2.1057    0.1527   -1.6292 C   0  0  0  0  0  0  0  0  0  0  0  0
    2.8837   -1.0264   -1.1333 C   0  0  0  0  0  0  0  0  0  0  0  0
    5.7174   -0.5740    1.7857 C   0  0  0  0  0  0  0  0  0  0  0  0
    5.8908    0.7692    1.8116 C   0  0  0  0  0  0  0  0  0  0  0  0
    7.1609    1.2466    1.5118 C   0  0  0  0  0  0  0  0  0  0  0  0
    7.8034    0.5727    0.4800 C   0  0  0  0  0  0  0  0  0  0  0  0
    7.5243   -0.7753    0.2850 C   0  0  0  0  0  0  0  0  0  0  0  0
    6.3331   -1.3003    0.7721 C   0  0  0  0  0  0  0  0  0  0  0  0
  1  2  1  0
  3  2  1  1
  3  4  1  0
  4  5  2  0
  4  6  1  0
  6  7  1  0
  7  8  1  0
  8  9  1  0
  9 10  1  0
 10 11  2  0
 11 12  1  0
 12 13  1  0
 13 14  2  0
 13 15  1  0
 15 16  2  0
 16 17  1  0
 17 18  2  0
 18 19  1  0
 19 20  1  0
 20 21  1  0
 21 22  1  0
 22 23  1  0
 22 24  1  0
 24 25  1  0
 18 26  1  0
 26 27  2  0
 11 28  1  0
 28 29  1  0
  3 30  1  0
 30 31  2  0
 31 32  1  0
 32 33  2  0
 33 34  1  0
 34 35  2  0
 29  6  1  0
 35 30  1  0
 28  8  2  0
 27 15  1  0
 25 19  1  0
M  END
>  <zinc_id>  (1) 
ZINC000006718723

>  <smiles>  (1) 
CO[C@@H](C(=O)N1Cc2[nH]nc(NC(=O)c3ccc(N4CCN(C)CC4)cc3)c2C1)c1ccccc1

$$$$
