REMARK SMILES CS(=O)(=O)Nc1ccc(-c2coc3cc(OCc4cccc(C(=O)O)c4)ccc3c2=O)cc1
REMARK SMILES IDX 10 1 11 2 12 3 13 4 14 5 15 6 27 7 28 8 29 9 30 10 31 11
REMARK SMILES IDX 9 12 6 13 7 14 33 15 8 16 32 17 5 18 2 19 1 20 3 21 4 22
REMARK SMILES IDX 16 23 17 24 18 25 19 26 26 27 20 28 22 29 21 30 23 31 24 32
REMARK SMILES IDX 25 33
REMARK H PARENT
REMARK Flexibility Score: inf
ROOT
ATOM      1  C   UNL     1       2.152   0.172  -0.479  1.00  0.00     0.065 A 
ATOM      2  C   UNL     1       1.514   1.296   0.031  1.00  0.00     0.103 A 
ATOM      3  O   UNL     1       0.219   1.286   0.298  1.00  0.00    -0.463 OA
ATOM      4  C   UNL     1      -0.407   0.129   0.432  1.00  0.00     0.141 A 
ATOM      5  C   UNL     1      -1.703   0.143   0.900  1.00  0.00     0.024 A 
ATOM      6  C   UNL     1      -2.541  -0.912   0.575  1.00  0.00     0.123 A 
ATOM      7  C   UNL     1      -2.156  -1.841  -0.379  1.00  0.00    -0.019 A 
ATOM      8  C   UNL     1      -0.835  -1.919  -0.721  1.00  0.00    -0.044 A 
ATOM      9  C   UNL     1      -0.000  -0.871  -0.443  1.00  0.00     0.066 A 
ATOM     10  C   UNL     1       1.302  -0.830  -0.930  1.00  0.00     0.200 A 
ATOM     11  O   UNL     1       1.804  -1.836  -1.471  1.00  0.00    -0.288 OA
ENDROOT
BRANCH   1  12
ATOM     12  C   UNL     1       3.560  -0.088  -0.160  1.00  0.00    -0.011 A 
ATOM     13  C   UNL     1       6.276  -0.385   0.423  1.00  0.00     0.048 A 
ATOM     14  C   UNL     1       5.736  -1.013  -0.693  1.00  0.00    -0.037 A 
ATOM     15  C   UNL     1       5.371  -0.103   1.437  1.00  0.00    -0.037 A 
ATOM     16  C   UNL     1       4.389  -0.823  -0.975  1.00  0.00    -0.052 A 
ATOM     17  C   UNL     1       4.072   0.245   1.088  1.00  0.00    -0.052 A 
BRANCH  13  18
ATOM     18  N   UNL     1       7.646   0.000   0.488  1.00  0.00    -0.284 N 
BRANCH  18  19
ATOM     19  S   UNL     1       8.110   1.499  -0.246  1.00  0.00     0.229 S 
ATOM     20  C   UNL     1       6.854   2.044  -1.379  1.00  0.00     0.058 C 
ATOM     21  O   UNL     1       8.321   2.568   0.783  1.00  0.00    -0.207 OA
ATOM     22  O   UNL     1       9.375   1.306  -1.020  1.00  0.00    -0.207 OA
ENDBRANCH  18  19
ENDBRANCH  13  18
ENDBRANCH   1  12
BRANCH   6  23
ATOM     23  O   UNL     1      -3.699  -1.045   1.315  1.00  0.00    -0.489 OA
BRANCH  23  24
ATOM     24  C   UNL     1      -4.656  -2.051   1.065  1.00  0.00     0.113 C 
BRANCH  24  25
ATOM     25  C   UNL     1      -5.720  -1.476   0.195  1.00  0.00    -0.010 A 
ATOM     26  C   UNL     1      -5.741  -1.764  -1.153  1.00  0.00    -0.056 A 
ATOM     27  C   UNL     1      -6.212  -0.232   0.569  1.00  0.00    -0.041 A 
ATOM     28  C   UNL     1      -6.314  -0.916  -2.092  1.00  0.00    -0.061 A 
ATOM     29  C   UNL     1      -6.911   0.537  -0.325  1.00  0.00     0.060 A 
ATOM     30  C   UNL     1      -6.744   0.331  -1.683  1.00  0.00    -0.048 A 
BRANCH  29  31
ATOM     31  C   UNL     1      -7.372   1.871   0.071  1.00  0.00     0.335 C 
ATOM     32  O   UNL     1      -7.229   2.304   1.242  1.00  0.00    -0.246 OA
ATOM     33  O   UNL     1      -8.462   2.374  -0.641  1.00  0.00    -0.478 OA
ENDBRANCH  29  31
ENDBRANCH  24  25
ENDBRANCH  23  24
ENDBRANCH   6  23
TORSDOF 7

