REMARK SMILES CCOC(=O)c1c2c3c(cccc3[nH]c1=O)C(=O)c1ccccc1-2
REMARK SMILES IDX 4 1 5 2 3 3 2 4 1 5 6 6 15 7 7 8 16 9 14 10 8 11 24 12 13 13
REMARK SMILES IDX 9 14 23 15 19 16 12 17 10 18 17 19 22 20 20 21 11 22 18 23
REMARK SMILES IDX 21 24
REMARK H PARENT
REMARK Flexibility Score: inf
ROOT
ATOM      1  C   UNL     1       2.254   0.509  -0.077  1.00  0.00     0.344 C 
ATOM      2  O   UNL     1       2.439   0.957   1.096  1.00  0.00    -0.246 OA
ENDROOT
BRANCH   1   3
ATOM      3  O   UNL     1       3.416   0.339  -0.837  1.00  0.00    -0.462 OA
BRANCH   3   4
ATOM      4  C   UNL     1       4.617   1.011  -0.480  1.00  0.00     0.089 C 
ATOM      5  C   UNL     1       4.779   1.099   1.028  1.00  0.00    -0.031 C 
ENDBRANCH   3   4
ENDBRANCH   1   3
BRANCH   1   6
ATOM      6  C   UNL     1       1.240  -0.538  -0.204  1.00  0.00     0.133 A 
ATOM      7  C   UNL     1       1.536  -1.884  -0.143  1.00  0.00     0.263 A 
ATOM      8  C   UNL     1      -0.082  -0.173   0.003  1.00  0.00     0.013 A 
ATOM      9  O   UNL     1       2.701  -2.227  -0.459  1.00  0.00    -0.269 OA
ATOM     10  N   UNL     1       0.537  -2.794  -0.036  1.00  0.00    -0.321 N 
ATOM     11  C   UNL     1      -1.006  -1.110   0.447  1.00  0.00     0.018 A 
ATOM     12  C   UNL     1      -0.494   1.150  -0.483  1.00  0.00    -0.005 A 
ATOM     13  C   UNL     1      -0.609  -2.434   0.592  1.00  0.00     0.050 A 
ATOM     14  C   UNL     1      -2.253  -0.681   0.882  1.00  0.00     0.032 A 
ATOM     15  C   UNL     1       0.445   2.001  -1.052  1.00  0.00    -0.054 A 
ATOM     16  C   UNL     1      -1.726   1.630  -0.076  1.00  0.00     0.030 A 
ATOM     17  C   UNL     1      -1.645  -3.361   0.561  1.00  0.00    -0.038 A 
ATOM     18  C   UNL     1      -3.200  -1.666   1.121  1.00  0.00    -0.050 A 
ATOM     19  C   UNL     1      -2.647   0.702   0.586  1.00  0.00     0.194 C 
ATOM     20  C   UNL     1      -0.083   3.001  -1.861  1.00  0.00    -0.062 A 
ATOM     21  C   UNL     1      -2.138   2.813  -0.648  1.00  0.00    -0.050 A 
ATOM     22  C   UNL     1      -2.971  -2.969   0.700  1.00  0.00    -0.059 A 
ATOM     23  O   UNL     1      -3.806   1.091   0.833  1.00  0.00    -0.289 OA
ATOM     24  C   UNL     1      -1.302   3.534  -1.492  1.00  0.00    -0.061 A 
ENDBRANCH   1   6
TORSDOF 3

