REMARK SMILES CCN(CC)CCOC(=O)c1ccc(N)cc1
REMARK SMILES IDX 7 1 6 2 3 3 2 4 1 5 4 6 5 7 8 8 9 9 10 10 11 11 12 12 17 13
REMARK SMILES IDX 13 14 16 15 14 16 15 17
REMARK H PARENT
REMARK Flexibility Score: inf
ROOT
ATOM      1  C   UNL     1       1.469  -0.599  -1.320  1.00  0.00     0.104 C 
ENDROOT
BRANCH   1   2
ATOM      2  C   UNL     1       2.643   0.337  -1.225  1.00  0.00     0.033 C 
BRANCH   2   3
ATOM      3  N   UNL     1       3.229   0.243   0.082  1.00  0.00    -0.301 NA
BRANCH   3   4
ATOM      4  C   UNL     1       3.909  -0.995   0.343  1.00  0.00    -0.005 C 
ATOM      5  C   UNL     1       4.870  -1.405  -0.734  1.00  0.00    -0.052 C 
ENDBRANCH   3   4
BRANCH   3   6
ATOM      6  C   UNL     1       3.976   1.411   0.466  1.00  0.00    -0.005 C 
ATOM      7  C   UNL     1       3.866   2.447  -0.621  1.00  0.00    -0.052 C 
ENDBRANCH   3   6
ENDBRANCH   2   3
ENDBRANCH   1   2
BRANCH   1   8
ATOM      8  O   UNL     1       0.265  -0.025  -0.872  1.00  0.00    -0.461 OA
BRANCH   8   9
ATOM      9  C   UNL     1      -0.335  -0.631   0.237  1.00  0.00     0.338 C 
ATOM     10  O   UNL     1       0.410  -0.720   1.259  1.00  0.00    -0.246 OA
BRANCH   9  11
ATOM     11  C   UNL     1      -1.784  -0.537   0.449  1.00  0.00     0.060 A 
ATOM     12  C   UNL     1      -2.677  -1.138  -0.428  1.00  0.00    -0.046 A 
ATOM     13  C   UNL     1      -2.217   0.482   1.272  1.00  0.00    -0.046 A 
ATOM     14  C   UNL     1      -4.009  -0.748  -0.487  1.00  0.00    -0.038 A 
ATOM     15  C   UNL     1      -3.594   0.622   1.397  1.00  0.00    -0.038 A 
ATOM     16  C   UNL     1      -4.466   0.229   0.390  1.00  0.00     0.031 A 
ATOM     17  N   UNL     1      -5.556   1.027  -0.041  1.00  0.00    -0.399 N 
ENDBRANCH   9  11
ENDBRANCH   8   9
ENDBRANCH   1   8
TORSDOF 7

