
     RDKit          3D

 31 36  0  0  0  0  0  0  0  0999 V2000
   -2.5801    0.3157    1.7764 C   0  0  0  0  0  0  0  0  0  0  0  0
   -1.3705   -0.1320    2.1308 N   0  0  0  0  0  0  0  0  0  0  0  0
   -0.7196   -0.4412    1.0096 N   0  0  0  0  0  0  0  0  0  0  0  0
    0.5424   -0.8540    0.7370 C   0  0  0  0  0  0  0  0  0  0  0  0
    1.1165   -0.5714   -0.4910 C   0  0  0  0  0  0  0  0  0  0  0  0
    2.5447   -0.2748   -0.6397 C   0  0  0  0  0  0  0  0  0  0  0  0
    3.3924   -0.8847    0.2751 C   0  0  0  0  0  0  0  0  0  0  0  0
    4.6627   -0.3733    0.4705 C   0  0  0  0  0  0  0  0  0  0  0  0
    5.0675    0.8408   -0.0678 C   0  0  0  0  0  0  0  0  0  0  0  0
    6.4435    1.0492   -0.4079 N   0  0  0  0  0  0  0  0  0  0  0  0
    7.3528    1.1569    0.7306 C   0  0  0  0  0  0  0  0  0  0  0  0
    7.6984   -0.2395    1.1809 C   0  0  0  0  0  0  0  0  0  0  0  0
    8.0742   -1.1112    0.0995 N   0  0  0  0  0  0  0  0  0  0  0  0
    7.1026   -1.1658   -0.9646 C   0  0  0  0  0  0  0  0  0  0  0  0
    6.9356    0.2428   -1.5223 C   0  0  0  0  0  0  0  0  0  0  0  0
    4.1300    1.5109   -0.8274 C   0  0  0  0  0  0  0  0  0  0  0  0
    2.8481    1.0238   -1.0270 C   0  0  0  0  0  0  0  0  0  0  0  0
    0.2292   -0.4605   -1.5547 C   0  0  0  0  0  0  0  0  0  0  0  0
   -1.0982   -0.3487   -1.3196 N   0  0  0  0  0  0  0  0  0  0  0  0
   -1.5480   -0.3536   -0.0414 C   0  0  0  0  0  0  0  0  0  0  0  0
   -2.7854   -0.0175    0.4430 C   0  0  0  0  0  0  0  0  0  0  0  0
   -4.0819   -0.3281   -0.1736 C   0  0  0  0  0  0  0  0  0  0  0  0
   -4.3010   -1.5125   -0.8651 C   0  0  0  0  0  0  0  0  0  0  0  0
   -5.5397   -2.1220   -0.7054 C   0  0  0  0  0  0  0  0  0  0  0  0
   -6.6244   -1.4258   -0.1895 C   0  0  0  0  0  0  0  0  0  0  0  0
   -6.4804   -0.0845    0.1292 C   0  0  0  0  0  0  0  0  0  0  0  0
   -7.4625    0.4466    0.8980 N   0  0  0  0  0  0  0  0  0  0  0  0
   -7.1808    1.5855    1.5740 C   0  0  0  0  0  0  0  0  0  0  0  0
   -6.1185    2.3472    1.1189 C   0  0  0  0  0  0  0  0  0  0  0  0
   -5.0376    1.7376    0.4947 C   0  0  0  0  0  0  0  0  0  0  0  0
   -5.2117    0.4443    0.0655 C   0  0  0  0  0  0  0  0  0  0  0  0
  1  2  2  0
  2  3  1  0
  3  4  1  0
  4  5  2  0
  5  6  1  0
  6  7  2  0
  7  8  1  0
  8  9  2  0
  9 10  1  0
 10 11  1  0
 11 12  1  0
 12 13  1  0
 13 14  1  0
 14 15  1  0
  9 16  1  0
 16 17  2  0
  5 18  1  0
 18 19  2  0
 19 20  1  0
 20 21  2  0
 21 22  1  0
 22 23  2  0
 23 24  1  0
 24 25  2  0
 25 26  1  0
 26 27  2  0
 27 28  1  0
 28 29  2  0
 29 30  1  0
 30 31  2  0
 21  1  1  0
 31 22  1  0
 20  3  1  0
 31 26  1  0
 17  6  1  0
 15 10  1  0
M  END
>  <zinc_id>  (1) 
ZINC000096173500

>  <smiles>  (1) 
c1cc(-c2cnn3cc(-c4ccc(N5CCNCC5)cc4)cnc23)c2cccnc2c1

$$$$
