REMARK SMILES CC(C)Oc1ccc(-c2nc(-c3cccc4c3CC[C@@H]4NCCO)no2)cc1C#N
REMARK SMILES IDX 12 1 13 2 14 3 15 4 16 5 17 6 18 7 19 8 20 9 11 10 9 11
REMARK SMILES IDX 10 12 26 13 25 14 8 15 5 16 6 17 28 18 7 19 27 20 4 21 2 22
REMARK SMILES IDX 1 23 3 24 29 25 30 26 21 27 22 28 23 29 24 30
REMARK H PARENT
REMARK Flexibility Score: inf
ROOT
ATOM      1  C   UNL     1      -2.080   0.771  -0.042  1.00  0.00     0.026 A 
ATOM      2  C   UNL     1      -2.134   2.156  -0.021  1.00  0.00    -0.051 A 
ATOM      3  C   UNL     1      -3.336   2.744   0.348  1.00  0.00    -0.061 A 
ATOM      4  C   UNL     1      -4.406   1.960   0.756  1.00  0.00    -0.057 A 
ATOM      5  C   UNL     1      -4.448   0.645   0.295  1.00  0.00    -0.027 A 
ATOM      6  C   UNL     1      -3.301   0.122  -0.166  1.00  0.00    -0.032 A 
ATOM      7  C   UNL     1      -3.506  -1.348  -0.358  1.00  0.00    -0.025 C 
ATOM      8  C   UNL     1      -3.905  -1.569   1.078  1.00  0.00    -0.029 C 
ATOM      9  C   UNL     1      -5.213  -0.531   1.134  1.00  0.00     0.033 C 
ENDROOT
BRANCH   1  10
ATOM     10  C   UNL     1      -0.836   0.062   0.282  1.00  0.00     0.203 A 
ATOM     11  C   UNL     1       1.203  -0.592   0.341  1.00  0.00     0.258 A 
ATOM     12  N   UNL     1       0.177  -0.311  -0.499  1.00  0.00    -0.187 NA
ATOM     13  O   UNL     1       0.643  -0.916   1.492  1.00  0.00    -0.334 OA
ATOM     14  N   UNL     1      -0.606  -0.537   1.477  1.00  0.00    -0.057 NA
BRANCH  11  15
ATOM     15  C   UNL     1       2.619  -0.305   0.096  1.00  0.00     0.041 A 
ATOM     16  C   UNL     1       5.200   0.235  -0.451  1.00  0.00     0.137 A 
ATOM     17  C   UNL     1       4.376  -0.156  -1.494  1.00  0.00    -0.018 A 
ATOM     18  C   UNL     1       4.596   0.879   0.616  1.00  0.00     0.095 A 
ATOM     19  C   UNL     1       3.026  -0.354  -1.231  1.00  0.00    -0.046 A 
ATOM     20  C   UNL     1       3.285   0.610   0.902  1.00  0.00    -0.028 A 
BRANCH  16  21
ATOM     21  O   UNL     1       6.563  -0.063  -0.413  1.00  0.00    -0.490 OA
BRANCH  21  22
ATOM     22  C   UNL     1       6.943  -1.393  -0.756  1.00  0.00     0.093 C 
ATOM     23  C   UNL     1       6.113  -2.378  -0.055  1.00  0.00    -0.028 C 
ATOM     24  C   UNL     1       6.614  -1.555  -2.235  1.00  0.00    -0.028 C 
ENDBRANCH  21  22
ENDBRANCH  16  21
BRANCH  18  25
ATOM     25  C   UNL     1       5.368   1.622   1.555  1.00  0.00     0.103 C 
ATOM     26  N   UNL     1       6.013   2.088   2.405  1.00  0.00    -0.192 NA
ENDBRANCH  18  25
ENDBRANCH  11  15
ENDBRANCH   1  10
BRANCH   9  27
ATOM     27  N   UNL     1      -5.840  -1.151  -0.203  1.00  0.00    -0.308 NA
BRANCH  27  28
ATOM     28  C   UNL     1      -7.208  -1.322   0.249  1.00  0.00     0.019 C 
BRANCH  28  29
ATOM     29  C   UNL     1      -8.177  -0.374  -0.380  1.00  0.00     0.056 C 
ATOM     30  O   UNL     1      -7.743   0.961  -0.342  1.00  0.00    -0.395 OA
ENDBRANCH  28  29
ENDBRANCH  27  28
ENDBRANCH   9  27
TORSDOF 8

