
     RDKit          3D

 24 27  0  0  0  0  0  0  0  0999 V2000
    4.0232    1.3795   -0.6181 C   0  0  0  0  0  0  0  0  0  0  0  0
    4.0816    1.3694    0.1387 C   0  0  0  0  0  0  0  0  0  0  0  0
    3.4628    0.3632    1.2485 C   0  0  1  0  0  0  0  0  0  0  0  0
    1.9430    0.6249    0.7137 C   0  0  0  0  0  0  0  0  0  0  0  0
    1.1183   -0.4944    0.8978 N   0  0  0  0  0  0  0  0  0  0  0  0
    1.8686   -1.2383    1.9195 C   0  0  0  0  0  0  0  0  0  0  0  0
    2.9468   -2.0179    1.2585 C   0  0  0  0  0  0  0  0  0  0  0  0
    3.7760   -1.0218    0.2492 C   0  0  1  0  0  0  0  0  0  0  0  0
    2.6096   -0.7175   -0.8548 C   0  0  0  0  0  0  0  0  0  0  0  0
    1.3580   -1.5793   -0.2244 C   0  0  2  0  0  0  0  0  0  0  0  0
    0.1343   -1.0494   -1.3692 C   0  0  2  0  0  0  0  0  0  0  0  0
    1.1409   -0.4940   -2.4009 O   0  0  0  0  0  0  0  0  0  0  0  0
   -0.1930    0.4006   -0.6829 C   0  0  0  0  0  0  0  0  0  0  0  0
   -0.1139    1.4940   -1.5440 C   0  0  0  0  0  0  0  0  0  0  0  0
   -0.6988    2.6909   -1.1474 C   0  0  0  0  0  0  0  0  0  0  0  0
   -1.4228    2.6545    0.0001 N   0  0  0  0  0  0  0  0  0  0  0  0
   -1.9818    1.4743    0.3977 C   0  0  0  0  0  0  0  0  0  0  0  0
   -3.2425    1.4069    0.9502 C   0  0  0  0  0  0  0  0  0  0  0  0
   -4.1427    0.3813    0.6739 C   0  0  0  0  0  0  0  0  0  0  0  0
   -3.6450   -0.7517    0.0732 C   0  0  0  0  0  0  0  0  0  0  0  0
   -4.4405   -1.8700    0.0614 O   0  0  0  0  0  0  0  0  0  0  0  0
   -4.8729   -2.4778   -1.1539 C   0  0  0  0  0  0  0  0  0  0  0  0
   -2.2761   -0.8042   -0.1659 C   0  0  0  0  0  0  0  0  0  0  0  0
   -1.4331    0.2771   -0.0527 C   0  0  0  0  0  0  0  0  0  0  0  0
  1  2  2  0
  3  2  1  6
  3  4  1  0
  4  5  1  0
  5  6  1  0
  6  7  1  0
  8  7  1  1
  8  9  1  0
 10  9  1  6
 10 11  1  0
 11 12  1  6
 11 13  1  0
 13 14  2  0
 14 15  1  0
 15 16  2  0
 16 17  1  0
 17 18  2  0
 18 19  1  0
 19 20  2  0
 20 21  1  0
 21 22  1  0
 20 23  1  0
 23 24  2  0
  8  3  1  0
 24 13  1  0
 10  5  1  0
 24 17  1  0
M  END
>  <zinc_id>  (1) 
ZINC000001319234

>  <smiles>  (1) 
C=C[C@H]1CN2CC[C@H]1C[C@@H]2[C@H](O)c1ccnc2ccc(OC)cc12

$$$$
