REMARK SMILES CC(C)(C)n1nc(-c2ccc(Cl)cc2)c2c(N)ncnc21
REMARK SMILES IDX 5 1 6 2 7 3 15 4 21 5 20 6 19 7 18 8 16 9 17 10 2 11 1 12
REMARK SMILES IDX 3 13 4 14 8 15 9 16 14 17 10 18 13 19 11 20 12 21
REMARK H PARENT
REMARK Flexibility Score: inf
ROOT
ATOM      1  N   UNL     1      -1.926   0.482  -0.730  1.00  0.00    -0.241 N 
ATOM      2  N   UNL     1      -0.698   0.840  -1.078  1.00  0.00    -0.170 NA
ATOM      3  C   UNL     1       0.214  -0.014  -0.591  1.00  0.00     0.106 A 
ATOM      4  C   UNL     1      -0.530  -1.095  -0.135  1.00  0.00     0.089 A 
ATOM      5  C   UNL     1      -1.844  -0.670  -0.022  1.00  0.00     0.164 A 
ATOM      6  N   UNL     1      -2.736  -1.492   0.551  1.00  0.00    -0.217 NA
ATOM      7  C   UNL     1      -2.292  -2.533   1.294  1.00  0.00     0.120 A 
ATOM      8  N   UNL     1      -1.066  -3.021   1.041  1.00  0.00    -0.219 NA
ATOM      9  C   UNL     1      -0.126  -2.332   0.349  1.00  0.00     0.138 A 
ATOM     10  N   UNL     1       1.229  -2.554   0.742  1.00  0.00    -0.383 N 
ENDROOT
BRANCH   1  11
ATOM     11  C   UNL     1      -3.041   1.410  -0.555  1.00  0.00     0.057 C 
ATOM     12  C   UNL     1      -4.050   1.220  -1.668  1.00  0.00    -0.040 C 
ATOM     13  C   UNL     1      -2.569   2.856  -0.646  1.00  0.00    -0.040 C 
ATOM     14  C   UNL     1      -3.748   1.215   0.755  1.00  0.00    -0.040 C 
ENDBRANCH   1  11
BRANCH   3  15
ATOM     15  C   UNL     1       1.615   0.296  -0.275  1.00  0.00     0.003 A 
ATOM     16  C   UNL     1       2.667  -0.245  -1.000  1.00  0.00    -0.051 A 
ATOM     17  C   UNL     1       1.866   1.252   0.699  1.00  0.00    -0.051 A 
ATOM     18  C   UNL     1       3.966   0.058  -0.618  1.00  0.00    -0.043 A 
ATOM     19  C   UNL     1       3.100   1.882   0.596  1.00  0.00    -0.043 A 
ATOM     20  C   UNL     1       4.200   1.105   0.264  1.00  0.00     0.041 A 
ATOM     21  Cl  UNL     1       5.769   1.340   1.028  1.00  0.00    -0.084 Cl
ENDBRANCH   3  15
TORSDOF 2

