
     RDKit          3D

 28 30  0  0  0  0  0  0  0  0999 V2000
   -8.4180   -0.3568   -0.5509 O   0  0  0  0  0  0  0  0  0  0  0  0
   -7.5100    0.4110   -0.9627 C   0  0  0  0  0  0  0  0  0  0  0  0
   -7.9121    1.6762   -1.3882 O   0  0  0  0  0  0  0  0  0  0  0  0
   -6.2041    0.3127   -0.3039 C   0  0  0  0  0  0  0  0  0  0  0  0
   -5.0771    0.0520   -1.0734 C   0  0  0  0  0  0  0  0  0  0  0  0
   -3.8153    0.1763   -0.5125 C   0  0  0  0  0  0  0  0  0  0  0  0
   -2.6377   -0.2936   -1.1762 N   0  0  0  0  0  0  0  0  0  0  0  0
   -1.9293   -1.2444   -0.7594 N   0  0  0  0  0  0  0  0  0  0  0  0
   -0.5022   -1.1839   -0.6515 C   0  0  0  0  0  0  0  0  0  0  0  0
    0.0951   -1.4337    0.5770 C   0  0  0  0  0  0  0  0  0  0  0  0
    1.3991   -1.0380    0.8074 C   0  0  0  0  0  0  0  0  0  0  0  0
    2.0794   -0.2176   -0.0606 C   0  0  0  0  0  0  0  0  0  0  0  0
    3.8183   -0.3020   -0.1497 S   0  0  0  0  0  0  0  0  0  0  0  0
    4.3371    0.4871   -1.3149 O   0  0  0  0  0  0  0  0  0  0  0  0
    4.2602   -1.7414   -0.2819 O   0  0  0  0  0  0  0  0  0  0  0  0
    4.5622    0.2964    1.3007 N   0  0  0  0  0  0  0  0  0  0  0  0
    5.9945    0.2922    1.3060 C   0  0  0  0  0  0  0  0  0  0  0  0
    6.6622   -0.8957    1.0423 C   0  0  0  0  0  0  0  0  0  0  0  0
    7.9805   -0.9179    0.6038 C   0  0  0  0  0  0  0  0  0  0  0  0
    8.4682    0.2826    0.1147 C   0  0  0  0  0  0  0  0  0  0  0  0
    7.8723    1.4779    0.4762 C   0  0  0  0  0  0  0  0  0  0  0  0
    6.5853    1.4297    0.8865 N   0  0  0  0  0  0  0  0  0  0  0  0
    1.4106    0.1562   -1.2199 C   0  0  0  0  0  0  0  0  0  0  0  0
    0.1204   -0.2726   -1.4924 C   0  0  0  0  0  0  0  0  0  0  0  0
   -3.7094    1.0725    0.5438 C   0  0  0  0  0  0  0  0  0  0  0  0
   -4.7538    1.0667    1.4566 C   0  0  0  0  0  0  0  0  0  0  0  0
   -6.0309    0.8346    0.9717 C   0  0  0  0  0  0  0  0  0  0  0  0
   -7.1458    0.9218    1.8115 O   0  0  0  0  0  0  0  0  0  0  0  0
  1  2  2  0
  2  3  1  0
  2  4  1  0
  4  5  2  0
  5  6  1  0
  6  7  1  0
  7  8  2  0
  8  9  1  0
  9 10  2  0
 10 11  1  0
 11 12  2  0
 12 13  1  0
 13 14  2  0
 13 15  2  0
 13 16  1  0
 16 17  1  0
 17 18  2  0
 18 19  1  0
 19 20  2  0
 20 21  1  0
 21 22  2  0
 12 23  1  0
 23 24  2  0
  6 25  2  0
 25 26  1  0
 26 27  2  0
 27 28  1  0
 27  4  1  0
 24  9  1  0
 22 17  1  0
M  END
>  <zinc_id>  (1) 
ZINC000003831490

>  <smiles>  (1) 
O=C(O)c1cc(/N=N/c2ccc(S(=O)(=O)Nc3ccccn3)cc2)ccc1O

$$$$
