REMARK SMILES Cc1ccc(C(=O)Nc2ccc(CN3CCN(C)CC3)c(C(F)(F)F)c2)cc1C#Cc1cnc2cccnn12
REMARK SMILES IDX 6 1 7 2 8 3 5 4 1 5 2 6 3 7 28 8 4 9 27 10 29 11 30 12 31 13
REMARK SMILES IDX 32 14 39 15 33 16 34 17 38 18 35 19 37 20 36 21 9 22 10 23
REMARK SMILES IDX 26 24 11 25 21 26 12 27 22 28 23 29 24 30 25 31 13 32 14 33
REMARK SMILES IDX 15 34 20 35 16 36 19 37 17 38 18 39
REMARK H PARENT
REMARK Flexibility Score: inf
ROOT
ATOM      1  C   UNL     1       0.192  -1.558  -0.246  1.00  0.00     0.255 C 
ATOM      2  O   UNL     1       0.464  -1.120  -1.405  1.00  0.00    -0.269 OA
ATOM      3  N   UNL     1       1.311  -1.905   0.562  1.00  0.00    -0.322 N 
ENDROOT
BRANCH   1   4
ATOM      4  C   UNL     1      -1.064  -1.055   0.326  1.00  0.00     0.041 A 
ATOM      5  C   UNL     1      -4.191   1.710   0.155  1.00  0.00    -0.039 C 
ATOM      6  C   UNL     1      -3.229   0.648   0.534  1.00  0.00    -0.035 A 
ATOM      7  C   UNL     1      -2.027   1.037   1.071  1.00  0.00    -0.057 A 
ATOM      8  C   UNL     1      -3.374  -0.608  -0.043  1.00  0.00     0.029 A 
ATOM      9  C   UNL     1      -1.058   0.046   1.173  1.00  0.00    -0.049 A 
ATOM     10  C   UNL     1      -2.303  -1.481  -0.138  1.00  0.00    -0.033 A 
BRANCH   8  11
ATOM     11  C   UNL     1      -4.675  -1.080  -0.465  1.00  0.00    -0.060 C 
ATOM     12  C   UNL     1      -5.866  -1.267  -0.625  1.00  0.00    -0.040 C 
BRANCH  12  13
ATOM     13  C   UNL     1      -7.283  -0.987  -0.704  1.00  0.00     0.135 A 
ATOM     14  C   UNL     1      -8.042  -0.970  -1.867  1.00  0.00     0.064 A 
ATOM     15  N   UNL     1      -8.073  -0.405   0.229  1.00  0.00    -0.205 N 
ATOM     16  N   UNL     1      -9.148  -0.256  -1.642  1.00  0.00    -0.234 NA
ATOM     17  C   UNL     1      -9.168   0.126  -0.346  1.00  0.00     0.154 A 
ATOM     18  N   UNL     1      -7.893  -0.235   1.537  1.00  0.00    -0.174 NA
ATOM     19  C   UNL     1      -9.771   1.209   0.282  1.00  0.00    -0.016 A 
ATOM     20  C   UNL     1      -8.425   0.838   2.170  1.00  0.00     0.048 A 
ATOM     21  C   UNL     1      -9.207   1.725   1.441  1.00  0.00    -0.038 A 
ENDBRANCH  12  13
ENDBRANCH   8  11
ENDBRANCH   1   4
BRANCH   3  22
ATOM     22  C   UNL     1       2.659  -1.605   0.181  1.00  0.00     0.042 A 
ATOM     23  C   UNL     1       3.645  -1.794   1.128  1.00  0.00    -0.038 A 
ATOM     24  C   UNL     1       2.955  -0.697  -0.828  1.00  0.00    -0.026 A 
ATOM     25  C   UNL     1       4.733  -0.941   1.258  1.00  0.00    -0.055 A 
ATOM     26  C   UNL     1       4.092   0.081  -0.821  1.00  0.00     0.062 A 
ATOM     27  C   UNL     1       4.924   0.021   0.275  1.00  0.00    -0.022 A 
BRANCH  26  28
ATOM     28  C   UNL     1       4.093   1.368  -1.585  1.00  0.00     0.416 C 
ATOM     29  F   UNL     1       5.324   1.970  -1.517  1.00  0.00    -0.166 F 
ATOM     30  F   UNL     1       3.142   2.183  -1.002  1.00  0.00    -0.166 F 
ATOM     31  F   UNL     1       3.691   1.157  -2.893  1.00  0.00    -0.166 F 
ENDBRANCH  26  28
BRANCH  27  32
ATOM     32  C   UNL     1       6.106   0.911   0.394  1.00  0.00     0.024 C 
BRANCH  32  33
ATOM     33  N   UNL     1       7.194   0.095   0.910  1.00  0.00    -0.297 NA
ATOM     34  C   UNL     1       8.339   0.911   1.221  1.00  0.00     0.011 C 
ATOM     35  C   UNL     1       7.471  -0.939  -0.056  1.00  0.00     0.011 C 
ATOM     36  C   UNL     1       8.757   1.631  -0.033  1.00  0.00     0.011 C 
ATOM     37  C   UNL     1       8.750  -0.647  -0.818  1.00  0.00     0.011 C 
ATOM     38  N   UNL     1       8.880   0.745  -1.162  1.00  0.00    -0.304 NA
ATOM     39  C   UNL     1       8.075   1.138  -2.291  1.00  0.00    -0.013 C 
ENDBRANCH  32  33
ENDBRANCH  27  32
ENDBRANCH   3  22
TORSDOF 7

