
     RDKit          3D

 26 29  0  0  0  0  0  0  0  0999 V2000
   -2.2692    1.0444   -0.5332 C   0  0  0  0  0  0  0  0  0  0  0  0
   -1.3694    0.2756   -0.8180 C   0  0  0  0  0  0  0  0  0  0  0  0
   -0.4734   -0.8581   -0.7602 C   0  0  0  0  0  0  0  0  0  0  0  0
   -0.9221   -2.1345   -0.8166 N   0  0  0  0  0  0  0  0  0  0  0  0
   -0.2685   -3.1548   -0.2083 C   0  0  0  0  0  0  0  0  0  0  0  0
   -0.9755   -4.2454    0.1678 N   0  0  0  0  0  0  0  0  0  0  0  0
   -0.4967   -5.1262    1.0752 C   0  0  0  0  0  0  0  0  0  0  0  0
    0.4804   -4.7606    1.9648 C   0  0  0  0  0  0  0  0  0  0  0  0
    1.0439   -3.5146    1.7970 C   0  0  0  0  0  0  0  0  0  0  0  0
    0.8265   -2.8536    0.5934 C   0  0  0  0  0  0  0  0  0  0  0  0
    1.5055   -1.7270    0.2662 N   0  0  0  0  0  0  0  0  0  0  0  0
    0.8520   -0.7208   -0.3650 C   0  0  0  0  0  0  0  0  0  0  0  0
    1.3449    0.5822   -0.3856 O   0  0  0  0  0  0  0  0  0  0  0  0
    2.0992    1.0258   -1.4987 C   0  0  0  0  0  0  0  0  0  0  0  0
    3.5713    0.7150   -1.2534 C   0  0  0  0  0  0  0  0  0  0  0  0
    4.2202    1.9611   -0.8626 N   0  0  0  0  0  0  0  0  0  0  0  0
    5.5450    1.7244   -0.3479 C   0  0  0  0  0  0  0  0  0  0  0  0
    5.7869    2.7605    0.7340 C   0  0  0  0  0  0  0  0  0  0  0  0
    4.4033    2.9584    1.2880 C   0  0  0  0  0  0  0  0  0  0  0  0
    3.4563    2.6059    0.1717 C   0  0  0  0  0  0  0  0  0  0  0  0
   -3.4753    1.6276    0.0121 C   0  0  0  0  0  0  0  0  0  0  0  0
   -3.6060    2.9994   -0.0980 C   0  0  0  0  0  0  0  0  0  0  0  0
   -4.8311    3.6143   -0.3275 C   0  0  0  0  0  0  0  0  0  0  0  0
   -5.9483    2.8352   -0.0829 C   0  0  0  0  0  0  0  0  0  0  0  0
   -5.8774    1.4674    0.0540 C   0  0  0  0  0  0  0  0  0  0  0  0
   -4.6225    0.8981    0.2337 C   0  0  0  0  0  0  0  0  0  0  0  0
  1  2  3  0
  2  3  1  0
  3  4  2  0
  4  5  1  0
  5  6  2  0
  6  7  1  0
  7  8  2  0
  8  9  1  0
  9 10  2  0
 10 11  1  0
 11 12  2  0
 12 13  1  0
 13 14  1  0
 14 15  1  0
 15 16  1  0
 16 17  1  0
 17 18  1  0
 18 19  1  0
 19 20  1  0
  1 21  1  0
 21 22  2  0
 22 23  1  0
 23 24  2  0
 24 25  1  0
 25 26  2  0
 12  3  1  0
 20 16  1  0
 26 21  1  0
 10  5  1  0
M  END
>  <zinc_id>  (1) 
ZINC000072180432

>  <smiles>  (1) 
C(#Cc1nc2ncccc2nc1OCCN1CCCC1)c1ccccc1

$$$$
