
     RDKit          3D

 23 24  0  0  0  0  0  0  0  0999 V2000
   -1.4619   -0.3672    2.4592 C   0  0  0  0  0  0  0  0  0  0  0  0
   -0.8307   -0.1102    2.5123 C   0  0  0  0  0  0  0  0  0  0  0  0
   -0.4150    1.2211    2.1798 N   0  0  0  0  0  0  0  0  0  0  0  0
    0.2973    1.1159    0.7587 C   0  0  1  0  0  0  0  0  0  0  0  0
    1.1561   -0.2276    1.2261 C   0  0  0  0  0  0  0  0  0  0  0  0
    2.0555   -0.5106    0.1606 N   0  0  0  0  0  0  0  0  0  0  0  0
    3.0731    0.4518   -0.0799 C   0  0  0  0  0  0  0  0  0  0  0  0
    4.2952   -0.2384   -0.6665 C   0  0  0  0  0  0  0  0  0  0  0  0
    5.3814   -0.3358    0.3637 C   0  0  0  0  0  0  0  0  0  0  0  0
    5.4610    0.7861    1.1817 O   0  0  0  0  0  0  0  0  0  0  0  0
    6.1340    1.8438    0.5785 C   0  0  0  0  0  0  0  0  0  0  0  0
    1.1638   -1.0040   -1.2015 S   0  0  0  0  0  0  0  0  0  0  0  0
    1.6850   -0.4759   -2.4922 O   0  0  0  0  0  0  0  0  0  0  0  0
    1.1820   -2.5114   -1.2393 O   0  0  0  0  0  0  0  0  0  0  0  0
   -0.5019   -0.5250   -0.9666 C   0  0  0  0  0  0  0  0  0  0  0  0
   -2.0318   -1.0040   -1.5842 S   0  0  0  0  0  0  0  0  0  0  0  0
   -3.0167    0.1381   -0.7709 C   0  0  0  0  0  0  0  0  0  0  0  0
   -4.7505    0.1199   -0.5788 S   0  0  0  0  0  0  0  0  0  0  0  0
   -5.5173    0.4193   -2.1032 N   0  0  0  0  0  0  0  0  0  0  0  0
   -5.2264   -1.1728    0.0090 O   0  0  0  0  0  0  0  0  0  0  0  0
   -5.1534    1.2286    0.3434 O   0  0  0  0  0  0  0  0  0  0  0  0
   -2.0612    0.9402   -0.1918 C   0  0  0  0  0  0  0  0  0  0  0  0
   -0.9176    0.2181    0.1355 C   0  0  0  0  0  0  0  0  0  0  0  0
  1  2  1  0
  2  3  1  0
  4  3  1  1
  4  5  1  0
  5  6  1  0
  6  7  1  0
  7  8  1  0
  8  9  1  0
  9 10  1  0
 10 11  1  0
  6 12  1  0
 12 13  2  0
 12 14  2  0
 12 15  1  0
 15 16  1  0
 16 17  1  0
 17 18  1  0
 18 19  1  0
 18 20  2  0
 18 21  2  0
 17 22  2  0
 22 23  1  0
 23  4  1  0
 23 15  2  0
M  END
>  <zinc_id>  (1) 
ZINC000003953037

>  <smiles>  (1) 
CCN[C@H]1CN(CCCOC)S(=O)(=O)c2sc(S(N)(=O)=O)cc21

$$$$
