
     RDKit          3D

 42 46  0  0  0  0  0  0  0  0999 V2000
   -6.8934   -2.2883    2.6525 C   0  0  0  0  0  0  0  0  0  0  0  0
   -5.7034   -3.0237    2.4770 O   0  0  0  0  0  0  0  0  0  0  0  0
   -4.4804   -2.3837    2.2834 C   0  0  0  0  0  0  0  0  0  0  0  0
   -3.9700   -1.4979    3.2235 C   0  0  0  0  0  0  0  0  0  0  0  0
   -2.9177   -0.6530    2.8922 C   0  0  0  0  0  0  0  0  0  0  0  0
   -2.5115   -0.4973    1.5731 C   0  0  0  0  0  0  0  0  0  0  0  0
   -2.1655    0.7833    1.0336 N   0  0  0  0  0  0  0  0  0  0  0  0
   -3.1486    1.5313    0.3342 C   0  0  0  0  0  0  0  0  0  0  0  0
   -3.3187    2.7750    0.5010 O   0  0  0  0  0  0  0  0  0  0  0  0
   -3.7534    0.9987   -0.8087 O   0  0  0  0  0  0  0  0  0  0  0  0
   -5.0205    1.4221   -1.2220 C   0  0  0  0  0  0  0  0  0  0  0  0
   -5.2465    1.6590   -2.5710 C   0  0  0  0  0  0  0  0  0  0  0  0
   -4.1443    2.2944   -3.3509 C   0  0  0  0  0  0  0  0  0  0  0  0
   -6.4773    1.3671   -3.1096 C   0  0  0  0  0  0  0  0  0  0  0  0
   -7.4862    0.7350   -2.3978 C   0  0  0  0  0  0  0  0  0  0  0  0
   -7.3295    0.7046   -1.0193 C   0  0  0  0  0  0  0  0  0  0  0  0
   -6.1032    1.0244   -0.4497 C   0  0  0  0  0  0  0  0  0  0  0  0
   -5.9617    1.2280    1.0249 C   0  0  0  0  0  0  0  0  0  0  0  0
   -0.7799    1.1455    1.0466 C   0  0  0  0  0  0  0  0  0  0  0  0
   -0.3847    1.9665    2.0958 C   0  0  0  0  0  0  0  0  0  0  0  0
    0.9220    1.9166    2.5663 C   0  0  0  0  0  0  0  0  0  0  0  0
    1.7244    0.9066    2.1661 N   0  0  0  0  0  0  0  0  0  0  0  0
    1.4429    0.3714    0.9536 C   0  0  0  0  0  0  0  0  0  0  0  0
    2.3682   -0.5960    0.4620 N   0  0  0  0  0  0  0  0  0  0  0  0
    3.7234   -0.3176    0.1849 C   0  0  0  0  0  0  0  0  0  0  0  0
    4.1653   -0.3924   -1.1288 C   0  0  0  0  0  0  0  0  0  0  0  0
    5.4034    0.1047   -1.5048 C   0  0  0  0  0  0  0  0  0  0  0  0
    6.3614    0.3489   -0.5308 C   0  0  0  0  0  0  0  0  0  0  0  0
    7.7393    0.4563   -0.8983 N   0  0  0  0  0  0  0  0  0  0  0  0
    8.1160    1.2777   -2.0347 C   0  0  0  0  0  0  0  0  0  0  0  0
    9.4543    0.9034   -2.6070 C   0  0  0  0  0  0  0  0  0  0  0  0
    9.8720   -0.4331   -2.2644 N   0  0  0  0  0  0  0  0  0  0  0  0
    9.0676   -1.4618   -2.8747 C   0  0  0  0  0  0  0  0  0  0  0  0
    9.9727   -0.5744   -0.8335 C   0  0  0  0  0  0  0  0  0  0  0  0
    8.6804   -0.3048   -0.1141 C   0  0  0  0  0  0  0  0  0  0  0  0
    5.8996    0.5735    0.7402 C   0  0  0  0  0  0  0  0  0  0  0  0
    4.6215    0.1716    1.1086 C   0  0  0  0  0  0  0  0  0  0  0  0
    0.1250    0.2049    0.6816 N   0  0  0  0  0  0  0  0  0  0  0  0
   -3.0310   -1.4146    0.6705 C   0  0  0  0  0  0  0  0  0  0  0  0
   -2.3536   -1.5408   -0.5455 O   0  0  0  0  0  0  0  0  0  0  0  0
   -2.6985   -2.5397   -1.4961 C   0  0  0  0  0  0  0  0  0  0  0  0
   -3.7800   -2.5018    1.0904 C   0  0  0  0  0  0  0  0  0  0  0  0
  1  2  1  0
  2  3  1  0
  3  4  2  0
  4  5  1  0
  5  6  2  0
  6  7  1  0
  7  8  1  0
  8  9  2  0
  8 10  1  0
 10 11  1  0
 11 12  2  0
 12 13  1  0
 12 14  1  0
 14 15  2  0
 15 16  1  0
 16 17  2  0
 17 18  1  0
  7 19  1  0
 19 20  2  0
 20 21  1  0
 21 22  2  0
 22 23  1  0
 23 24  1  0
 24 25  1  0
 25 26  2  0
 26 27  1  0
 27 28  2  0
 28 29  1  0
 29 30  1  0
 30 31  1  0
 31 32  1  0
 32 33  1  0
 32 34  1  0
 34 35  1  0
 28 36  1  0
 36 37  2  0
 23 38  2  0
  6 39  1  0
 39 40  1  0
 40 41  1  0
 39 42  2  0
 42  3  1  0
 17 11  1  0
 38 19  1  0
 37 25  1  0
 35 29  1  0
M  END
>  <zinc_id>  (1) 
ZINC000014965418

>  <smiles>  (1) 
COc1ccc(N(C(=O)Oc2c(C)cccc2C)c2ccnc(Nc3ccc(N4CCN(C)CC4)cc3)n2)c(OC)c1

$$$$
