
     RDKit          3D

 17 18  0  0  0  0  0  0  0  0999 V2000
    4.4027    0.8299   -0.4287 N   0  0  0  0  0  0  0  0  0  0  0  0
    3.4855   -0.2236   -0.2060 C   0  0  0  0  0  0  0  0  0  0  0  0
    2.9893   -1.0034   -1.1988 N   0  0  0  0  0  0  0  0  0  0  0  0
    1.6579   -1.2738   -1.2418 C   0  0  0  0  0  0  0  0  0  0  0  0
    0.7967   -0.8878   -0.2645 N   0  0  0  0  0  0  0  0  0  0  0  0
   -0.3540    0.0792   -0.7680 C   0  0  2  0  0  0  0  0  0  0  0  0
   -0.8367    0.4288    0.6230 O   0  0  0  0  0  0  0  0  0  0  0  0
   -1.9742    1.0802   -0.1216 C   0  0  2  0  0  0  0  0  0  0  0  0
   -2.6948    1.5492    1.2774 C   0  0  0  0  0  0  0  0  0  0  0  0
   -2.6545    2.9239    1.2121 O   0  0  0  0  0  0  0  0  0  0  0  0
   -2.6942   -0.4576    0.0013 C   0  0  1  0  0  0  0  0  0  0  0  0
   -3.6850   -0.1159   -1.0685 O   0  0  0  0  0  0  0  0  0  0  0  0
   -1.4940   -1.1904   -0.9602 C   0  0  1  0  0  0  0  0  0  0  0  0
   -1.8878   -0.6209   -2.2884 O   0  0  0  0  0  0  0  0  0  0  0  0
    1.4568   -0.4653    0.8314 C   0  0  0  0  0  0  0  0  0  0  0  0
    0.6878   -0.2666    1.8097 O   0  0  0  0  0  0  0  0  0  0  0  0
    2.7983   -0.3858    0.9369 N   0  0  0  0  0  0  0  0  0  0  0  0
  1  2  1  0
  2  3  1  0
  3  4  2  0
  4  5  1  0
  6  5  1  1
  6  7  1  0
  7  8  1  0
  8  9  1  1
  9 10  1  0
  8 11  1  0
 11 12  1  6
 11 13  1  0
 13 14  1  6
  5 15  1  0
 15 16  2  0
 15 17  1  0
 17  2  2  0
 13  6  1  0
M  END
>  <zinc_id>  (1) 
ZINC000003861768

>  <smiles>  (1) 
Nc1ncn([C@@H]2O[C@H](CO)[C@@H](O)[C@H]2O)c(=O)n1

$$$$
