
     RDKit          3D

 16 16  0  0  0  0  0  0  0  0999 V2000
    4.9436    0.4502    0.6487 C   0  0  0  0  0  0  0  0  0  0  0  0
    4.8998   -0.2420   -0.7069 C   0  0  0  0  0  0  0  0  0  0  0  0
    3.9359    0.5594   -1.5636 C   0  0  0  0  0  0  0  0  0  0  0  0
    2.8640   -0.4203   -2.0213 C   0  0  0  0  0  0  0  0  0  0  0  0
    2.3092   -0.9856   -0.8530 O   0  0  0  0  0  0  0  0  0  0  0  0
    1.3637   -0.3162   -0.0737 C   0  0  0  0  0  0  0  0  0  0  0  0
    1.0568    1.0240   -0.2772 C   0  0  0  0  0  0  0  0  0  0  0  0
   -0.2564    1.4726   -0.1949 C   0  0  0  0  0  0  0  0  0  0  0  0
   -1.2917    0.5817    0.0586 C   0  0  0  0  0  0  0  0  0  0  0  0
   -2.6157    0.6930   -0.6256 C   0  0  0  0  0  0  0  0  0  0  0  0
   -3.6570    0.1788    0.3182 C   0  0  0  0  0  0  0  0  0  0  0  0
   -4.8142    0.0455   -0.1799 O   0  0  0  0  0  0  0  0  0  0  0  0
   -3.5784    0.6913    1.6476 N   0  0  0  0  0  0  0  0  0  0  0  0
   -4.6541    0.6120    2.4617 O   0  0  0  0  0  0  0  0  0  0  0  0
   -0.9058   -0.5697    0.7344 C   0  0  0  0  0  0  0  0  0  0  0  0
    0.4004   -1.0327    0.6268 C   0  0  0  0  0  0  0  0  0  0  0  0
  1  2  1  0
  2  3  1  0
  3  4  1  0
  4  5  1  0
  5  6  1  0
  6  7  2  0
  7  8  1  0
  8  9  2  0
  9 10  1  0
 10 11  1  0
 11 12  2  0
 11 13  1  0
 13 14  1  0
  9 15  1  0
 15 16  2  0
 16  6  1  0
M  END
>  <zinc_id>  (1) 
ZINC000003871797

>  <smiles>  (1) 
CCCCOc1ccc(CC(=O)NO)cc1

$$$$
