REMARK SMILES Nc1nc2c(c(N3CCNCC3)n1)CCC1=C2[C@@H]2CCCC[C@@H]2O1
REMARK SMILES IDX 1 1 2 2 3 3 4 4 5 5 6 6 13 7 14 8 15 9 16 10 17 11 18 12
REMARK SMILES IDX 19 13 20 14 21 15 22 16 23 17 24 18 7 19 8 20 12 21 9 22
REMARK SMILES IDX 11 23 10 24
REMARK H PARENT
REMARK Flexibility Score: inf
ROOT
ATOM      1  N   UNL     1       1.302  -4.166   0.222  1.00  0.00    -0.368 N 
ATOM      2  C   UNL     1       1.068  -2.832  -0.022  1.00  0.00     0.222 A 
ATOM      3  N   UNL     1      -0.176  -2.313  -0.174  1.00  0.00    -0.213 NA
ATOM      4  C   UNL     1      -0.295  -0.978  -0.020  1.00  0.00     0.081 A 
ATOM      5  C   UNL     1       0.811  -0.222   0.354  1.00  0.00     0.021 A 
ATOM      6  C   UNL     1       2.033  -0.689  -0.088  1.00  0.00     0.138 A 
ATOM      7  N   UNL     1       2.164  -2.038  -0.115  1.00  0.00    -0.196 NA
ATOM      8  C   UNL     1       0.549   1.233   0.560  1.00  0.00    -0.015 C 
ATOM      9  C   UNL     1      -0.609   1.300   1.547  1.00  0.00     0.010 C 
ATOM     10  C   UNL     1      -1.788   0.736   0.808  1.00  0.00     0.103 C 
ATOM     11  C   UNL     1      -1.612  -0.440   0.260  1.00  0.00     0.023 C 
ATOM     12  C   UNL     1      -2.991  -0.822  -0.438  1.00  0.00     0.026 C 
ATOM     13  C   UNL     1      -3.005   0.554  -1.293  1.00  0.00    -0.043 C 
ATOM     14  C   UNL     1      -4.369   0.827  -1.802  1.00  0.00    -0.052 C 
ATOM     15  C   UNL     1      -5.085   1.328  -0.545  1.00  0.00    -0.050 C 
ATOM     16  C   UNL     1      -5.181   0.102   0.245  1.00  0.00    -0.015 C 
ATOM     17  C   UNL     1      -3.780  -0.277   0.981  1.00  0.00     0.105 C 
ATOM     18  O   UNL     1      -3.132   1.103   0.885  1.00  0.00    -0.494 OA
ENDROOT
BRANCH   6  19
ATOM     19  N   UNL     1       3.144   0.183  -0.173  1.00  0.00    -0.354 N 
ATOM     20  C   UNL     1       3.045   1.415  -0.939  1.00  0.00     0.032 C 
ATOM     21  C   UNL     1       4.388  -0.031   0.547  1.00  0.00     0.032 C 
ATOM     22  C   UNL     1       3.476   2.611  -0.103  1.00  0.00     0.013 C 
ATOM     23  C   UNL     1       5.325   1.091   0.157  1.00  0.00     0.013 C 
ATOM     24  N   UNL     1       4.718   2.326   0.603  1.00  0.00    -0.313 NA
ENDBRANCH   6  19
TORSDOF 1

