REMARK SMILES CCCCOc1ccc(CC(=O)NO)cc1
REMARK SMILES IDX 5 1 4 2 3 3 2 4 1 5 6 6 7 7 16 8 8 9 15 10 9 11 10 12 11 13
REMARK SMILES IDX 12 14 13 15 14 16
REMARK H PARENT
REMARK Flexibility Score: inf
ROOT
ATOM      1  O   UNL     1       2.309  -0.986  -0.853  1.00  0.00    -0.494 OA
ENDROOT
BRANCH   1   2
ATOM      2  C   UNL     1       2.864  -0.420  -2.021  1.00  0.00     0.088 C 
BRANCH   2   3
ATOM      3  C   UNL     1       3.936   0.559  -1.564  1.00  0.00    -0.019 C 
BRANCH   3   4
ATOM      4  C   UNL     1       4.900  -0.242  -0.707  1.00  0.00    -0.053 C 
ATOM      5  C   UNL     1       4.944   0.450   0.649  1.00  0.00    -0.065 C 
ENDBRANCH   3   4
ENDBRANCH   2   3
ENDBRANCH   1   2
BRANCH   1   6
ATOM      6  C   UNL     1       1.364  -0.316  -0.074  1.00  0.00     0.119 A 
ATOM      7  C   UNL     1       1.057   1.024  -0.277  1.00  0.00    -0.020 A 
ATOM      8  C   UNL     1       0.400  -1.033   0.627  1.00  0.00    -0.020 A 
ATOM      9  C   UNL     1      -0.256   1.473  -0.195  1.00  0.00    -0.055 A 
ATOM     10  C   UNL     1      -0.906  -0.570   0.734  1.00  0.00    -0.055 A 
ATOM     11  C   UNL     1      -1.292   0.582   0.059  1.00  0.00    -0.038 A 
BRANCH  11  12
ATOM     12  C   UNL     1      -2.616   0.693  -0.626  1.00  0.00     0.054 C 
BRANCH  12  13
ATOM     13  C   UNL     1      -3.657   0.179   0.318  1.00  0.00     0.247 C 
ATOM     14  O   UNL     1      -4.814   0.045  -0.180  1.00  0.00    -0.272 OA
ATOM     15  N   UNL     1      -3.578   0.691   1.648  1.00  0.00    -0.238 N 
ATOM     16  O   UNL     1      -4.654   0.612   2.462  1.00  0.00    -0.289 OA
ENDBRANCH  12  13
ENDBRANCH  11  12
ENDBRANCH   1   6
TORSDOF 6

