REMARK SMILES Cc1cnc(-c2ccccc2C(C)C)nc1NCc1ccc(-n2ccnn2)cc1
REMARK SMILES IDX 17 1 16 2 1 3 2 4 3 5 4 6 15 7 5 8 6 9 7 10 11 11 8 12 10 13
REMARK SMILES IDX 9 14 12 15 13 16 14 17 18 18 19 19 20 20 29 21 21 22 28 23
REMARK SMILES IDX 22 24 23 25 24 26 27 27 25 28 26 29
REMARK H PARENT
REMARK Flexibility Score: inf
ROOT
ATOM      1  N   UNL     1       0.402  -0.399   0.876  1.00  0.00    -0.366 N 
ENDROOT
BRANCH   1   2
ATOM      2  C   UNL     1      -0.831   0.292   0.643  1.00  0.00     0.133 A 
ATOM      3  C   UNL     1       0.393   2.410   0.487  1.00  0.00    -0.035 C 
ATOM      4  C   UNL     1      -0.820   1.607   0.206  1.00  0.00     0.010 A 
ATOM      5  C   UNL     1      -1.972   2.151  -0.339  1.00  0.00     0.036 A 
ATOM      6  N   UNL     1      -3.029   1.326  -0.504  1.00  0.00    -0.236 NA
ATOM      7  N   UNL     1      -2.030  -0.312   0.755  1.00  0.00    -0.211 NA
ATOM      8  C   UNL     1      -3.142   0.167   0.185  1.00  0.00     0.161 A 
BRANCH   8   9
ATOM      9  C   UNL     1      -4.356  -0.634   0.138  1.00  0.00     0.023 A 
ATOM     10  C   UNL     1      -4.287  -2.001   0.296  1.00  0.00    -0.051 A 
ATOM     11  C   UNL     1      -5.554   0.024  -0.035  1.00  0.00    -0.034 A 
ATOM     12  C   UNL     1      -5.471  -2.645   0.620  1.00  0.00    -0.062 A 
ATOM     13  C   UNL     1      -6.725  -0.642   0.279  1.00  0.00    -0.058 A 
ATOM     14  C   UNL     1      -6.697  -2.006   0.545  1.00  0.00    -0.062 A 
BRANCH  11  15
ATOM     15  C   UNL     1      -5.514   1.336  -0.712  1.00  0.00    -0.021 C 
ATOM     16  C   UNL     1      -6.056   1.290  -2.118  1.00  0.00    -0.059 C 
ATOM     17  C   UNL     1      -6.097   2.451   0.110  1.00  0.00    -0.059 C 
ENDBRANCH  11  15
ENDBRANCH   8   9
ENDBRANCH   1   2
BRANCH   1  18
ATOM     18  C   UNL     1       1.022  -1.218  -0.159  1.00  0.00     0.041 C 
BRANCH  18  19
ATOM     19  C   UNL     1       2.483  -0.962  -0.120  1.00  0.00    -0.029 A 
ATOM     20  C   UNL     1       3.268  -1.229   0.982  1.00  0.00    -0.055 A 
ATOM     21  C   UNL     1       3.092  -0.279  -1.159  1.00  0.00    -0.055 A 
ATOM     22  C   UNL     1       4.470  -0.567   1.198  1.00  0.00    -0.036 A 
ATOM     23  C   UNL     1       4.309   0.360  -0.955  1.00  0.00    -0.036 A 
ATOM     24  C   UNL     1       5.088   0.079   0.147  1.00  0.00     0.066 A 
BRANCH  24  25
ATOM     25  N   UNL     1       6.513   0.169   0.047  1.00  0.00    -0.221 N 
ATOM     26  C   UNL     1       7.405  -0.253   0.962  1.00  0.00     0.051 A 
ATOM     27  N   UNL     1       7.218   0.377  -1.049  1.00  0.00    -0.062 NA
ATOM     28  C   UNL     1       8.577  -0.558   0.280  1.00  0.00     0.070 A 
ATOM     29  N   UNL     1       8.340  -0.337  -1.029  1.00  0.00    -0.139 NA
ENDBRANCH  24  25
ENDBRANCH  18  19
ENDBRANCH   1  18
TORSDOF 6

