
     RDKit          3D

 28 29  0  0  0  0  0  0  0  0999 V2000
   -0.6598   -4.1140    0.1749 C   0  0  0  0  0  0  0  0  0  0  0  0
   -0.2982   -2.9539    0.3556 N   0  0  0  0  0  0  0  0  0  0  0  0
   -0.5044   -1.7929   -0.4707 C   0  0  0  0  0  0  0  0  0  0  0  0
   -1.4975   -1.9174   -1.2011 O   0  0  0  0  0  0  0  0  0  0  0  0
   -0.5237   -0.5304    0.5779 C   0  0  2  0  0  0  0  0  0  0  0  0
   -1.3808    0.4815   -0.4404 C   0  0  0  0  0  0  0  0  0  0  0  0
   -2.7190    0.3400    0.2128 C   0  0  0  0  0  0  0  0  0  0  0  0
   -3.2761   -0.7263    0.9079 C   0  0  0  0  0  0  0  0  0  0  0  0
   -4.5616   -0.7736    0.4740 N   0  0  0  0  0  0  0  0  0  0  0  0
   -4.9112    0.5258    0.3088 C   0  0  0  0  0  0  0  0  0  0  0  0
   -6.0956    1.2190    0.5304 C   0  0  0  0  0  0  0  0  0  0  0  0
   -6.1329    2.5894    0.6981 C   0  0  0  0  0  0  0  0  0  0  0  0
   -4.9822    3.2848    0.3459 C   0  0  0  0  0  0  0  0  0  0  0  0
   -3.8033    2.6314    0.0000 C   0  0  0  0  0  0  0  0  0  0  0  0
   -3.7455    1.2754    0.1795 C   0  0  0  0  0  0  0  0  0  0  0  0
    0.8806    0.0925    0.1479 N   0  0  0  0  0  0  0  0  0  0  0  0
    1.5306   -0.4656   -0.9069 C   0  0  0  0  0  0  0  0  0  0  0  0
    0.8623   -0.5240   -1.9518 O   0  0  0  0  0  0  0  0  0  0  0  0
    3.1255   -0.3280   -1.0745 C   0  0  1  0  0  0  0  0  0  0  0  0
    3.0839    1.3095   -0.8219 C   0  0  0  0  0  0  0  0  0  0  0  0
    4.5007    1.5618   -0.4073 C   0  0  0  0  0  0  0  0  0  0  0  0
    5.4436    1.0328   -1.0625 O   0  0  0  0  0  0  0  0  0  0  0  0
    4.7519    2.7087    0.3720 N   0  0  0  0  0  0  0  0  0  0  0  0
    5.9843    3.2589    0.4671 O   0  0  0  0  0  0  0  0  0  0  0  0
    3.4314   -0.6203    0.5280 C   0  0  0  0  0  0  0  0  0  0  0  0
    3.4519   -2.1140    0.6682 C   0  0  0  0  0  0  0  0  0  0  0  0
    3.3149   -2.8225   -0.6577 C   0  0  0  0  0  0  0  0  0  0  0  0
    4.7304   -2.6285    1.3130 C   0  0  0  0  0  0  0  0  0  0  0  0
  1  2  1  0
  2  3  1  0
  3  4  2  0
  5  3  1  6
  5  6  1  0
  6  7  1  0
  7  8  2  0
  8  9  1  0
  9 10  1  0
 10 11  2  0
 11 12  1  0
 12 13  2  0
 13 14  1  0
 14 15  2  0
  5 16  1  0
 16 17  1  0
 17 18  2  0
 19 17  1  1
 19 20  1  0
 20 21  1  0
 21 22  2  0
 21 23  1  0
 23 24  1  0
 19 25  1  0
 25 26  1  0
 26 27  1  0
 26 28  1  0
 15  7  1  0
 15 10  1  0
M  END
>  <zinc_id>  (1) 
ZINC000003780014

>  <smiles>  (1) 
CNC(=O)[C@H](Cc1c[nH]c2ccccc12)NC(=O)[C@@H](CC(=O)NO)CC(C)C

$$$$
