REMARK SMILES O/N=C/c1ccc(-c2ccc(O)c(F)c2)c(Cl)c1O
REMARK SMILES IDX 4 1 5 2 6 3 7 4 16 5 17 6 18 7 19 8 3 9 1 10 2 11 8 12 9 13
REMARK SMILES IDX 15 14 10 15 13 16 11 17 14 18 12 19
REMARK H PARENT
REMARK Flexibility Score: inf
ROOT
ATOM      1  C   UNL     1       2.703  -0.361   0.088  1.00  0.00     0.040 A 
ATOM      2  C   UNL     1       2.233  -0.176   1.382  1.00  0.00    -0.049 A 
ATOM      3  C   UNL     1       0.888  -0.384   1.671  1.00  0.00    -0.052 A 
ATOM      4  C   UNL     1       0.055  -1.043   0.788  1.00  0.00     0.004 A 
ATOM      5  C   UNL     1       0.643  -1.511  -0.375  1.00  0.00     0.091 A 
ATOM      6  Cl  UNL     1      -0.239  -2.728  -1.265  1.00  0.00    -0.080 Cl
ATOM      7  C   UNL     1       1.967  -1.231  -0.691  1.00  0.00     0.143 A 
ATOM      8  O   UNL     1       2.575  -1.750  -1.812  1.00  0.00    -0.506 OA
ENDROOT
BRANCH   1   9
ATOM      9  C   UNL     1       3.611   0.600  -0.552  1.00  0.00     0.077 C 
ATOM     10  O   UNL     1       4.032   2.910  -0.582  1.00  0.00    -0.411 OA
ATOM     11  N   UNL     1       4.018   1.672   0.035  1.00  0.00    -0.097 NA
ENDBRANCH   1   9
BRANCH   4  12
ATOM     12  C   UNL     1      -1.358  -0.652   0.683  1.00  0.00    -0.014 A 
ATOM     13  C   UNL     1      -2.192  -1.248  -0.226  1.00  0.00    -0.050 A 
ATOM     14  C   UNL     1      -1.817   0.520   1.271  1.00  0.00    -0.015 A 
ATOM     15  C   UNL     1      -3.405  -0.657  -0.561  1.00  0.00    -0.017 A 
ATOM     16  C   UNL     1      -2.814   1.271   0.706  1.00  0.00     0.165 A 
ATOM     17  C   UNL     1      -3.632   0.675  -0.245  1.00  0.00     0.151 A 
ATOM     18  F   UNL     1      -2.896   2.623   0.814  1.00  0.00    -0.203 F 
ATOM     19  O   UNL     1      -4.372   1.470  -1.128  1.00  0.00    -0.505 OA
ENDBRANCH   4  12
TORSDOF 2

