REMARK SMILES CN1CCc2nc(C(=O)N[C@H]3C[C@H](C(=O)N(C)C)CC[C@@H]3NC(=O)C(=O)Nc3ccc(Cl)cn3)sc2C1
REMARK SMILES IDX 13 1 19 2 20 3 21 4 11 5 12 6 14 7 17 8 16 9 18 10 15 11
REMARK SMILES IDX 10 12 8 13 9 14 7 15 6 16 35 17 5 18 36 19 4 20 37 21 3 22
REMARK SMILES IDX 2 23 1 24 22 25 23 26 24 27 25 28 26 29 27 30 28 31 29 32
REMARK SMILES IDX 34 33 30 34 33 35 31 36 32 37
REMARK H PARENT
REMARK Flexibility Score: inf
ROOT
ATOM      1  C   UNL     1      -0.737  -3.632  -0.967  1.00  0.00     0.040 C 
ATOM      2  C   UNL     1       0.553  -3.655   0.073  1.00  0.00    -0.040 C 
ATOM      3  C   UNL     1       1.525  -2.867  -0.808  1.00  0.00    -0.030 C 
ATOM      4  C   UNL     1       0.581  -1.700  -1.491  1.00  0.00     0.050 C 
ATOM      5  C   UNL     1      -0.151  -1.346   0.039  1.00  0.00     0.050 C 
ATOM      6  C   UNL     1      -1.436  -2.332  -0.229  1.00  0.00    -0.019 C 
ENDROOT
BRANCH   1   7
ATOM      7  C   UNL     1      -1.574  -4.684  -0.053  1.00  0.00     0.225 C 
ATOM      8  C   UNL     1      -0.421  -6.227  -0.731  1.00  0.00     0.009 C 
ATOM      9  N   UNL     1      -0.868  -5.930   0.009  1.00  0.00    -0.349 N 
ATOM     10  C   UNL     1      -0.378  -6.310   1.327  1.00  0.00     0.009 C 
ATOM     11  O   UNL     1      -2.728  -4.753  -0.581  1.00  0.00    -0.275 OA
ENDBRANCH   1   7
BRANCH   5  12
ATOM     12  N   UNL     1      -0.905  -0.095  -0.554  1.00  0.00    -0.345 N 
ATOM     13  C   UNL     1      -1.574   0.632   0.483  1.00  0.00     0.280 C 
ATOM     14  O   UNL     1      -1.335   0.465   1.703  1.00  0.00    -0.267 OA
BRANCH  13  15
ATOM     15  C   UNL     1      -2.702   1.511   0.147  1.00  0.00     0.181 A 
ATOM     16  N   UNL     1      -3.717   1.300  -0.713  1.00  0.00    -0.236 NA
ATOM     17  S   UNL     1      -3.136   3.072   0.716  1.00  0.00    -0.112 S 
ATOM     18  C   UNL     1      -4.877   1.790  -0.273  1.00  0.00     0.058 A 
ATOM     19  C   UNL     1      -4.752   3.116   0.130  1.00  0.00     0.042 A 
ATOM     20  C   UNL     1      -6.254   1.356  -0.682  1.00  0.00     0.004 C 
ATOM     21  C   UNL     1      -5.918   3.896   0.655  1.00  0.00     0.034 C 
ATOM     22  C   UNL     1      -7.267   1.976   0.256  1.00  0.00     0.004 C 
ATOM     23  N   UNL     1      -7.169   3.425   0.132  1.00  0.00    -0.301 NA
ATOM     24  C   UNL     1      -7.213   3.807  -1.270  1.00  0.00    -0.013 C 
ENDBRANCH  13  15
ENDBRANCH   5  12
BRANCH   4  25
ATOM     25  N   UNL     1       1.678  -0.588  -1.326  1.00  0.00    -0.343 N 
ATOM     26  C   UNL     1       2.309  -0.436  -0.098  1.00  0.00     0.310 C 
ATOM     27  O   UNL     1       1.813  -0.940   0.927  1.00  0.00    -0.264 OA
BRANCH  26  28
ATOM     28  C   UNL     1       3.415   0.529  -0.025  1.00  0.00     0.314 C 
ATOM     29  O   UNL     1       3.282   1.684   0.454  1.00  0.00    -0.263 OA
ATOM     30  N   UNL     1       4.714  -0.071   0.044  1.00  0.00    -0.302 N 
BRANCH  30  31
ATOM     31  C   UNL     1       5.869   0.733   0.318  1.00  0.00     0.132 A 
ATOM     32  C   UNL     1       6.700   1.168  -0.709  1.00  0.00    -0.018 A 
ATOM     33  N   UNL     1       5.948   1.483   1.447  1.00  0.00    -0.238 NA
ATOM     34  C   UNL     1       7.117   2.490  -0.807  1.00  0.00    -0.038 A 
ATOM     35  C   UNL     1       6.464   2.738   1.423  1.00  0.00     0.048 A 
ATOM     36  C   UNL     1       6.808   3.364   0.230  1.00  0.00     0.059 A 
ATOM     37  Cl  UNL     1       6.336   5.030  -0.097  1.00  0.00    -0.083 Cl
ENDBRANCH  30  31
ENDBRANCH  26  28
ENDBRANCH   4  25
TORSDOF 6

