
     RDKit          3D

 14 15  0  0  0  0  0  0  0  0999 V2000
   -3.2866   -1.3672   -0.1636 O   0  0  0  0  0  0  0  0  0  0  0  0
   -2.1047   -0.9539   -0.2523 C   0  0  0  0  0  0  0  0  0  0  0  0
   -0.8781   -1.6921   -0.2237 N   0  0  0  0  0  0  0  0  0  0  0  0
    0.2184   -0.7861   -0.4043 C   0  0  0  0  0  0  0  0  0  0  0  0
   -0.3174    0.4906   -0.5330 C   0  0  0  0  0  0  0  0  0  0  0  0
    0.5623    1.5401   -0.6150 C   0  0  0  0  0  0  0  0  0  0  0  0
    1.9149    1.4164   -0.3237 C   0  0  0  0  0  0  0  0  0  0  0  0
    2.3551    0.2012    0.1830 C   0  0  0  0  0  0  0  0  0  0  0  0
    3.6752    0.1238    1.3431 Cl  0  0  0  0  0  0  0  0  0  0  0  0
    1.5776   -0.9054   -0.1324 C   0  0  0  0  0  0  0  0  0  0  0  0
    2.2960   -2.4898    0.1452 Cl  0  0  0  0  0  0  0  0  0  0  0  0
   -1.7389    0.4622   -0.1683 C   0  0  0  0  0  0  0  0  0  0  0  0
   -2.4381    1.3699    0.4438 N   0  0  0  0  0  0  0  0  0  0  0  0
   -1.8357    2.5902    0.7013 O   0  0  0  0  0  0  0  0  0  0  0  0
  1  2  2  0
  2  3  1  0
  3  4  1  0
  4  5  2  0
  5  6  1  0
  6  7  2  0
  7  8  1  0
  8  9  1  0
  8 10  2  0
 10 11  1  0
  5 12  1  0
 12 13  2  0
 13 14  1  0
 12  2  1  0
 10  4  1  0
M  END
>  <zinc_id>  (1) 
ZINC000013829418

>  <smiles>  (1) 
O=C1Nc2c(ccc(Cl)c2Cl)/C1=N\O

$$$$
