REMARK SMILES Cc1cc(-c2nc(-c3ccc(OC(F)(F)F)cc3)no2)nn1Cc1ccnc(N2CCN(C3CC3)CC2)c1
REMARK SMILES IDX 1 1 2 2 3 3 4 4 21 5 22 6 23 7 24 8 25 9 38 10 26 11 28 12
REMARK SMILES IDX 27 13 29 14 30 15 37 16 31 17 36 18 32 19 33 20 34 21 35 22
REMARK SMILES IDX 5 23 6 24 20 25 7 26 19 27 8 28 9 29 18 30 10 31 17 32 11 33
REMARK SMILES IDX 12 34 13 35 14 36 15 37 16 38
REMARK H PARENT
REMARK Flexibility Score: inf
ROOT
ATOM      1  C   UNL     1       1.904  -2.712  -1.870  1.00  0.00    -0.022 C 
ATOM      2  C   UNL     1       0.728  -2.489  -0.973  1.00  0.00     0.037 A 
ATOM      3  C   UNL     1      -0.609  -2.454  -1.351  1.00  0.00    -0.008 A 
ATOM      4  C   UNL     1      -1.227  -1.561  -0.503  1.00  0.00     0.150 A 
ATOM      5  N   UNL     1      -0.384  -1.373   0.512  1.00  0.00    -0.167 NA
ATOM      6  N   UNL     1       0.841  -1.777   0.175  1.00  0.00    -0.265 N 
ENDROOT
BRANCH   6   7
ATOM      7  C   UNL     1       1.957  -1.653   1.077  1.00  0.00     0.066 C 
BRANCH   7   8
ATOM      8  C   UNL     1       3.271  -1.760   0.369  1.00  0.00    -0.021 A 
ATOM      9  C   UNL     1       4.012  -2.899   0.666  1.00  0.00    -0.039 A 
ATOM     10  C   UNL     1       4.013  -0.586   0.298  1.00  0.00    -0.014 A 
ATOM     11  C   UNL     1       5.283  -2.943   0.109  1.00  0.00     0.030 A 
ATOM     12  C   UNL     1       5.379  -0.584   0.096  1.00  0.00     0.128 A 
ATOM     13  N   UNL     1       5.972  -1.796  -0.005  1.00  0.00    -0.239 NA
BRANCH  12  14
ATOM     14  N   UNL     1       6.226   0.488   0.511  1.00  0.00    -0.354 N 
ATOM     15  C   UNL     1       6.890   0.400   1.797  1.00  0.00     0.032 C 
ATOM     16  C   UNL     1       6.526   1.631  -0.315  1.00  0.00     0.032 C 
ATOM     17  C   UNL     1       8.377   0.597   1.702  1.00  0.00     0.016 C 
ATOM     18  C   UNL     1       7.625   2.425   0.335  1.00  0.00     0.016 C 
ATOM     19  N   UNL     1       8.746   1.623   0.751  1.00  0.00    -0.297 NA
BRANCH  19  20
ATOM     20  C   UNL     1       9.509   1.089  -0.353  1.00  0.00     0.010 C 
ATOM     21  C   UNL     1       9.716   1.961  -1.537  1.00  0.00    -0.036 C 
ATOM     22  C   UNL     1       8.861   0.667  -1.614  1.00  0.00    -0.036 C 
ENDBRANCH  19  20
ENDBRANCH  12  14
ENDBRANCH   7   8
ENDBRANCH   6   7
BRANCH   4  23
ATOM     23  C   UNL     1      -2.533  -0.908  -0.636  1.00  0.00     0.278 A 
ATOM     24  N   UNL     1      -3.756  -1.487  -0.716  1.00  0.00    -0.185 NA
ATOM     25  O   UNL     1      -2.785   0.314  -0.209  1.00  0.00    -0.332 OA
ATOM     26  C   UNL     1      -4.661  -0.485  -0.804  1.00  0.00     0.202 A 
ATOM     27  N   UNL     1      -3.911   0.643  -0.776  1.00  0.00    -0.057 NA
BRANCH  26  28
ATOM     28  C   UNL     1      -6.123  -0.566  -0.690  1.00  0.00     0.023 A 
ATOM     29  C   UNL     1      -6.921   0.178  -1.552  1.00  0.00    -0.047 A 
ATOM     30  C   UNL     1      -6.717  -0.897   0.522  1.00  0.00    -0.047 A 
ATOM     31  C   UNL     1      -8.119   0.745  -1.133  1.00  0.00    -0.019 A 
ATOM     32  C   UNL     1      -7.886  -0.284   0.957  1.00  0.00    -0.019 A 
ATOM     33  C   UNL     1      -8.445   0.752   0.218  1.00  0.00     0.129 A 
BRANCH  33  34
ATOM     34  O   UNL     1      -8.980   1.874   0.850  1.00  0.00    -0.406 OA
BRANCH  34  35
ATOM     35  C   UNL     1      -8.355   3.135   0.862  1.00  0.00     0.573 C 
ATOM     36  F   UNL     1      -6.990   3.009   0.714  1.00  0.00    -0.132 F 
ATOM     37  F   UNL     1      -8.591   3.820   2.050  1.00  0.00    -0.132 F 
ATOM     38  F   UNL     1      -8.847   3.865  -0.212  1.00  0.00    -0.132 F 
ENDBRANCH  34  35
ENDBRANCH  33  34
ENDBRANCH  26  28
ENDBRANCH   4  23
TORSDOF 8

