
     RDKit          3D

 30 33  0  0  0  0  0  0  0  0999 V2000
   -8.8926   -1.9602   -0.0667 C   0  0  0  0  0  0  0  0  0  0  0  0
   -7.6633   -1.2935   -0.5556 C   0  0  0  0  0  0  0  0  0  0  0  0
   -6.6202   -0.9271    0.2859 C   0  0  0  0  0  0  0  0  0  0  0  0
   -5.4356   -0.5272   -0.2980 C   0  0  0  0  0  0  0  0  0  0  0  0
   -4.2566   -0.1448    0.4898 C   0  0  0  0  0  0  0  0  0  0  0  0
   -3.2559   -1.0407    0.6700 N   0  0  0  0  0  0  0  0  0  0  0  0
   -1.9501   -0.6826    0.5994 C   0  0  0  0  0  0  0  0  0  0  0  0
   -1.5751    0.6223    0.3016 C   0  0  0  0  0  0  0  0  0  0  0  0
   -0.4547    0.8942   -0.6525 C   0  0  0  0  0  0  0  0  0  0  0  0
    0.6227   -0.1182   -0.4276 C   0  0  0  0  0  0  0  0  0  0  0  0
    1.0441   -0.8647   -1.3624 O   0  0  0  0  0  0  0  0  0  0  0  0
    1.0238   -0.5253    0.8855 N   0  0  0  0  0  0  0  0  0  0  0  0
    2.4262   -0.7300    1.1004 C   0  0  0  0  0  0  0  0  0  0  0  0
    3.1057   -1.7720    0.5002 C   0  0  0  0  0  0  0  0  0  0  0  0
    4.4624   -1.6428    0.2521 C   0  0  0  0  0  0  0  0  0  0  0  0
    5.1072   -0.4639    0.5669 C   0  0  0  0  0  0  0  0  0  0  0  0
    6.4284   -0.1750    0.0408 C   0  0  0  0  0  0  0  0  0  0  0  0
    6.5903    0.6970   -1.0199 C   0  0  0  0  0  0  0  0  0  0  0  0
    7.7543    1.3688   -1.1345 N   0  0  0  0  0  0  0  0  0  0  0  0
    8.7949    1.1716   -0.3004 C   0  0  0  0  0  0  0  0  0  0  0  0
    8.6388    0.2528    0.7291 C   0  0  0  0  0  0  0  0  0  0  0  0
    7.5099   -0.4558    0.7920 N   0  0  0  0  0  0  0  0  0  0  0  0
    4.4473    0.4891    1.3183 C   0  0  0  0  0  0  0  0  0  0  0  0
    3.1277    0.3681    1.4745 N   0  0  0  0  0  0  0  0  0  0  0  0
   -2.5624    1.5765    0.5176 C   0  0  0  0  0  0  0  0  0  0  0  0
   -3.8905    1.1871    0.6486 C   0  0  0  0  0  0  0  0  0  0  0  0
   -5.0076    2.1758    0.5397 C   0  0  0  0  0  0  0  0  0  0  0  0
   -5.3453   -0.6523   -1.6783 C   0  0  0  0  0  0  0  0  0  0  0  0
   -6.5024   -0.4538   -2.4129 C   0  0  0  0  0  0  0  0  0  0  0  0
   -7.6713   -0.7690   -1.8034 N   0  0  0  0  0  0  0  0  0  0  0  0
  1  2  1  0
  2  3  2  0
  3  4  1  0
  4  5  1  0
  5  6  2  0
  6  7  1  0
  7  8  2  0
  8  9  1  0
  9 10  1  0
 10 11  2  0
 10 12  1  0
 12 13  1  0
 13 14  2  0
 14 15  1  0
 15 16  2  0
 16 17  1  0
 17 18  2  0
 18 19  1  0
 19 20  2  0
 20 21  1  0
 21 22  2  0
 16 23  1  0
 23 24  2  0
  8 25  1  0
 25 26  2  0
 26 27  1  0
  4 28  2  0
 28 29  1  0
 29 30  2  0
 30  2  1  0
 26  5  1  0
 24 13  1  0
 22 17  1  0
M  END
>  <zinc_id>  (1) 
ZINC000095930187

>  <smiles>  (1) 
Cc1cc(-c2ncc(CC(=O)Nc3ccc(-c4cnccn4)cn3)cc2C)ccn1

$$$$
