
     RDKit          3D

 18 19  0  0  0  0  0  0  0  0999 V2000
    6.3320   -0.2776   -1.8411 C   0  0  0  0  0  0  0  0  0  0  0  0
    5.6969    0.4402   -0.6556 C   0  0  0  0  0  0  0  0  0  0  0  0
    4.5760   -0.4160   -0.0777 C   0  0  0  0  0  0  0  0  0  0  0  0
    3.6953    0.4403    0.6175 O   0  0  0  0  0  0  0  0  0  0  0  0
    2.3375    0.1495    0.7551 C   0  0  0  0  0  0  0  0  0  0  0  0
    1.5903    0.9431    1.6112 C   0  0  0  0  0  0  0  0  0  0  0  0
    0.2696    1.2533    1.3106 C   0  0  0  0  0  0  0  0  0  0  0  0
   -0.3802    0.5439    0.3082 C   0  0  0  0  0  0  0  0  0  0  0  0
   -1.6649    0.4368   -0.0681 N   0  0  0  0  0  0  0  0  0  0  0  0
   -1.9064   -0.7851   -0.6009 C   0  0  0  0  0  0  0  0  0  0  0  0
   -3.0890   -1.3250   -0.5622 N   0  0  0  0  0  0  0  0  0  0  0  0
   -4.2207   -0.5109   -0.2499 C   0  0  0  0  0  0  0  0  0  0  0  0
   -5.2463   -0.9668    0.3205 O   0  0  0  0  0  0  0  0  0  0  0  0
   -4.1405    0.8429   -0.5695 O   0  0  0  0  0  0  0  0  0  0  0  0
   -5.0582    1.7720    0.0033 C   0  0  0  0  0  0  0  0  0  0  0  0
   -0.7026   -1.3906   -0.6860 N   0  0  0  0  0  0  0  0  0  0  0  0
    0.2668   -0.5247   -0.3005 C   0  0  0  0  0  0  0  0  0  0  0  0
    1.6443   -0.6254   -0.1519 C   0  0  0  0  0  0  0  0  0  0  0  0
  1  2  1  0
  2  3  1  0
  3  4  1  0
  4  5  1  0
  5  6  2  0
  6  7  1  0
  7  8  2  0
  8  9  1  0
  9 10  1  0
 10 11  2  0
 11 12  1  0
 12 13  2  0
 12 14  1  0
 14 15  1  0
 10 16  1  0
 16 17  1  0
 17 18  2  0
 18  5  1  0
 17  8  1  0
M  END
>  <zinc_id>  (1) 
ZINC000004685859

>  <smiles>  (1) 
CCCOc1ccc2[nH]/c(=N\C(=O)OC)[nH]c2c1

$$$$
