REMARK SMILES NC(=O)Nc1cc(-c2cccc(F)c2)sc1C(=O)N[C@H]1CCCNC1
REMARK SMILES IDX 5 1 6 2 7 3 15 4 16 5 4 6 1 7 2 8 3 9 17 10 18 11 19 12
REMARK SMILES IDX 20 13 21 14 25 15 22 16 24 17 23 18 8 19 9 20 14 21 10 22
REMARK SMILES IDX 12 23 11 24 13 25
REMARK H PARENT
REMARK Flexibility Score: inf
ROOT
ATOM      1  C   UNL     1       0.405   1.309   0.198  1.00  0.00     0.067 A 
ATOM      2  C   UNL     1       1.596   0.745   0.565  1.00  0.00    -0.019 A 
ATOM      3  C   UNL     1       2.125  -0.078  -0.424  1.00  0.00     0.037 A 
ATOM      4  S   UNL     1       0.642  -0.675  -1.065  1.00  0.00    -0.128 S 
ATOM      5  C   UNL     1      -0.495   0.366  -0.289  1.00  0.00     0.116 A 
ENDROOT
BRANCH   1   6
ATOM      6  N   UNL     1      -0.103   2.517   0.783  1.00  0.00    -0.307 N 
ATOM      7  N   UNL     1       0.290   4.718   0.817  1.00  0.00    -0.351 N 
ATOM      8  C   UNL     1       0.237   3.800   0.264  1.00  0.00     0.316 C 
ATOM      9  O   UNL     1       0.302   3.876  -0.995  1.00  0.00    -0.249 OA
ENDBRANCH   1   6
BRANCH   5  10
ATOM     10  C   UNL     1      -1.850   0.070   0.220  1.00  0.00     0.263 C 
ATOM     11  O   UNL     1      -2.032  -1.168   0.458  1.00  0.00    -0.268 OA
ATOM     12  N   UNL     1      -2.912   0.683  -0.450  1.00  0.00    -0.347 N 
BRANCH  12  13
ATOM     13  C   UNL     1      -4.382   0.360   0.005  1.00  0.00     0.042 C 
ATOM     14  C   UNL     1      -4.804  -0.081  -1.521  1.00  0.00    -0.030 C 
ATOM     15  C   UNL     1      -4.092  -1.197   0.444  1.00  0.00     0.016 C 
ATOM     16  C   UNL     1      -6.203  -0.606  -1.436  1.00  0.00    -0.039 C 
ATOM     17  N   UNL     1      -5.316  -1.902   0.344  1.00  0.00    -0.315 NA
ATOM     18  C   UNL     1      -6.445  -1.127  -0.054  1.00  0.00    -0.005 C 
ENDBRANCH  12  13
ENDBRANCH   5  10
BRANCH   3  19
ATOM     19  C   UNL     1       3.277  -0.962  -0.166  1.00  0.00    -0.005 A 
ATOM     20  C   UNL     1       3.135  -2.336  -0.024  1.00  0.00    -0.053 A 
ATOM     21  C   UNL     1       4.545  -0.460  -0.065  1.00  0.00    -0.018 A 
ATOM     22  C   UNL     1       4.205  -3.191  -0.166  1.00  0.00    -0.059 A 
ATOM     23  C   UNL     1       5.619  -1.287   0.167  1.00  0.00     0.123 A 
ATOM     24  C   UNL     1       5.465  -2.635  -0.001  1.00  0.00    -0.026 A 
ATOM     25  F   UNL     1       6.790  -0.738   0.529  1.00  0.00    -0.207 F 
ENDBRANCH   3  19
TORSDOF 4

