
     RDKit          3D

 22 23  0  0  0  0  0  0  0  0999 V2000
   -4.5059   -2.3254    0.1419 C   0  0  0  0  0  0  0  0  0  0  0  0
   -3.4628   -2.2407    1.2235 C   0  0  0  0  0  0  0  0  0  0  0  0
   -2.6421   -1.1028    1.0826 O   0  0  0  0  0  0  0  0  0  0  0  0
   -2.3048   -0.5485   -0.1565 C   0  0  0  0  0  0  0  0  0  0  0  0
   -2.9702   -0.9782   -1.1477 O   0  0  0  0  0  0  0  0  0  0  0  0
   -0.9181   -0.1855   -0.4846 C   0  0  0  0  0  0  0  0  0  0  0  0
   -0.3076    0.9008    0.1297 C   0  0  0  0  0  0  0  0  0  0  0  0
   -0.8749    2.2555    0.0972 C   0  0  0  0  0  0  0  0  0  0  0  0
   -0.3832    3.2433   -0.8393 C   0  0  0  0  0  0  0  0  0  0  0  0
    0.1957    3.8736   -1.6328 N   0  0  0  0  0  0  0  0  0  0  0  0
   -1.3942    2.7220    1.2070 C   0  0  0  0  0  0  0  0  0  0  0  0
   -1.5185    2.0011    2.4150 N   0  0  0  0  0  0  0  0  0  0  0  0
    1.0581    0.6423    0.1321 C   0  0  0  0  0  0  0  0  0  0  0  0
    2.1503    1.3387    0.6106 C   0  0  0  0  0  0  0  0  0  0  0  0
    3.3813    0.6950    0.5875 C   0  0  0  0  0  0  0  0  0  0  0  0
    3.4950   -0.6393    0.2753 C   0  0  0  0  0  0  0  0  0  0  0  0
    5.0329   -1.4887    0.3059 Cl  0  0  0  0  0  0  0  0  0  0  0  0
    2.4293   -1.3053   -0.2665 C   0  0  0  0  0  0  0  0  0  0  0  0
    2.4793   -2.9992   -0.6849 Cl  0  0  0  0  0  0  0  0  0  0  0  0
    1.2475   -0.6054   -0.4495 C   0  0  0  0  0  0  0  0  0  0  0  0
    0.0531   -1.0149   -0.9392 N   0  0  0  0  0  0  0  0  0  0  0  0
   -0.2401   -2.2384   -1.6647 C   0  0  0  0  0  0  0  0  0  0  0  0
  1  2  1  0
  2  3  1  0
  3  4  1  0
  4  5  2  0
  4  6  1  0
  6  7  2  0
  7  8  1  0
  8  9  1  0
  9 10  3  0
  8 11  2  0
 11 12  1  0
  7 13  1  0
 13 14  2  0
 14 15  1  0
 15 16  2  0
 16 17  1  0
 16 18  1  0
 18 19  1  0
 18 20  2  0
 20 21  1  0
 21 22  1  0
 21  6  1  0
 20 13  1  0
M  END
>  <zinc_id>  (1) 
ZINC000033295985

>  <smiles>  (1) 
CCOC(=O)c1c(/C(C#N)=C\N)c2ccc(Cl)c(Cl)c2n1C

$$$$
