REMARK SMILES CCCCCCOc1nsnc1C1=CCCN(C)C1
REMARK SMILES IDX 5 1 4 2 3 3 2 4 1 5 6 6 7 7 8 8 9 9 12 10 10 11 11 12 13 13
REMARK SMILES IDX 14 14 19 15 15 16 17 17 16 18 18 19
REMARK H PARENT
REMARK Flexibility Score: inf
ROOT
ATOM      1  C   UNL     1       2.492  -1.694  -1.220  1.00  0.00    -0.019 C 
ENDROOT
BRANCH   1   2
ATOM      2  C   UNL     1       3.821  -0.999  -0.961  1.00  0.00    -0.050 C 
BRANCH   2   3
ATOM      3  C   UNL     1       3.585   0.306  -0.242  1.00  0.00    -0.053 C 
BRANCH   3   4
ATOM      4  C   UNL     1       4.649   1.341  -0.575  1.00  0.00    -0.056 C 
ATOM      5  C   UNL     1       5.337   1.753   0.696  1.00  0.00    -0.065 C 
ENDBRANCH   3   4
ENDBRANCH   2   3
ENDBRANCH   1   2
BRANCH   1   6
ATOM      6  C   UNL     1       1.439  -0.647  -1.460  1.00  0.00     0.090 C 
BRANCH   6   7
ATOM      7  O   UNL     1       0.789  -0.226  -0.297  1.00  0.00    -0.475 OA
BRANCH   7   8
ATOM      8  C   UNL     1       0.105  -1.075   0.581  1.00  0.00     0.253 A 
ATOM      9  N   UNL     1       0.635  -2.283   0.886  1.00  0.00    -0.135 NA
ATOM     10  C   UNL     1      -1.251  -1.056   0.755  1.00  0.00     0.145 A 
ATOM     11  S   UNL     1      -0.319  -2.737   2.210  1.00  0.00     0.072 S 
ATOM     12  N   UNL     1      -1.621  -1.704   1.889  1.00  0.00    -0.169 NA
BRANCH  10  13
ATOM     13  C   UNL     1      -2.122   0.000   0.219  1.00  0.00    -0.005 C 
ATOM     14  C   UNL     1      -3.111   0.542   0.887  1.00  0.00    -0.076 C 
ATOM     15  C   UNL     1      -1.659   0.762  -0.983  1.00  0.00     0.025 C 
ATOM     16  C   UNL     1      -4.250   1.233   0.207  1.00  0.00    -0.021 C 
ATOM     17  N   UNL     1      -2.451   1.946  -1.182  1.00  0.00    -0.302 NA
ATOM     18  C   UNL     1      -3.843   1.575  -1.219  1.00  0.00     0.002 C 
ATOM     19  C   UNL     1      -2.228   2.963  -0.193  1.00  0.00    -0.013 C 
ENDBRANCH  10  13
ENDBRANCH   7   8
ENDBRANCH   6   7
ENDBRANCH   1   6
TORSDOF 7

