REMARK SMILES O=C(Nc1ccc(N2CCC(C(=O)N3CCOCC3)CC2)cc1)c1cnc(Oc2ccccc2)nc1
REMARK SMILES IDX 1 1 2 2 3 3 24 4 25 5 36 6 26 7 35 8 27 9 28 10 29 11 30 12
REMARK SMILES IDX 34 13 31 14 33 15 32 16 4 17 5 18 23 19 6 20 22 21 7 22 8 23
REMARK SMILES IDX 9 24 21 25 10 26 20 27 11 28 12 29 13 30 14 31 15 32 19 33
REMARK SMILES IDX 16 34 18 35 17 36
REMARK H PARENT
REMARK Flexibility Score: inf
ROOT
ATOM      1  O   UNL     1      -1.841  -2.701  -1.129  1.00  0.00    -0.269 OA
ATOM      2  C   UNL     1      -2.430  -2.013  -0.242  1.00  0.00     0.258 C 
ATOM      3  N   UNL     1      -2.052  -0.636  -0.173  1.00  0.00    -0.322 N 
ENDROOT
BRANCH   2   4
ATOM      4  C   UNL     1      -3.814  -2.395   0.050  1.00  0.00     0.077 A 
ATOM      5  C   UNL     1      -4.524  -1.834   1.103  1.00  0.00     0.047 A 
ATOM      6  C   UNL     1      -4.578  -3.101  -0.871  1.00  0.00     0.047 A 
ATOM      7  N   UNL     1      -5.863  -1.647   1.014  1.00  0.00    -0.203 NA
ATOM      8  N   UNL     1      -5.912  -2.885  -0.911  1.00  0.00    -0.203 NA
ATOM      9  C   UNL     1      -6.530  -1.992  -0.112  1.00  0.00     0.321 A 
BRANCH   9  10
ATOM     10  O   UNL     1      -7.600  -1.235  -0.598  1.00  0.00    -0.424 OA
BRANCH  10  11
ATOM     11  C   UNL     1      -7.590   0.163  -0.569  1.00  0.00     0.131 A 
ATOM     12  C   UNL     1      -7.428   0.737   0.682  1.00  0.00    -0.019 A 
ATOM     13  C   UNL     1      -7.031   0.854  -1.630  1.00  0.00    -0.019 A 
ATOM     14  C   UNL     1      -7.589   2.110   0.764  1.00  0.00    -0.059 A 
ATOM     15  C   UNL     1      -6.984   2.237  -1.517  1.00  0.00    -0.059 A 
ATOM     16  C   UNL     1      -7.534   2.854  -0.405  1.00  0.00    -0.062 A 
ENDBRANCH  10  11
ENDBRANCH   9  10
ENDBRANCH   2   4
BRANCH   3  17
ATOM     17  C   UNL     1      -0.672  -0.329  -0.370  1.00  0.00     0.041 A 
ATOM     18  C   UNL     1       0.126  -1.108  -1.173  1.00  0.00    -0.036 A 
ATOM     19  C   UNL     1      -0.059   0.533   0.512  1.00  0.00    -0.036 A 
ATOM     20  C   UNL     1       1.510  -1.039  -1.115  1.00  0.00    -0.037 A 
ATOM     21  C   UNL     1       1.304   0.412   0.732  1.00  0.00    -0.037 A 
ATOM     22  C   UNL     1       2.039  -0.554   0.074  1.00  0.00     0.037 A 
BRANCH  22  23
ATOM     23  N   UNL     1       3.374  -0.898   0.464  1.00  0.00    -0.371 N 
ATOM     24  C   UNL     1       4.401  -0.633  -0.541  1.00  0.00     0.019 C 
ATOM     25  C   UNL     1       3.738  -0.545   1.833  1.00  0.00     0.019 C 
ATOM     26  C   UNL     1       4.476   0.885  -0.653  1.00  0.00    -0.024 C 
ATOM     27  C   UNL     1       4.832   0.488   1.804  1.00  0.00    -0.024 C 
ATOM     28  C   UNL     1       4.606   1.496   0.714  1.00  0.00     0.041 C 
BRANCH  28  29
ATOM     29  C   UNL     1       5.753   2.443   0.668  1.00  0.00     0.225 C 
ATOM     30  O   UNL     1       5.461   3.651   0.414  1.00  0.00    -0.275 OA
ATOM     31  N   UNL     1       7.048   2.029   0.218  1.00  0.00    -0.338 N 
ATOM     32  C   UNL     1       7.114   1.433  -1.093  1.00  0.00     0.044 C 
ATOM     33  C   UNL     1       8.031   1.573   1.195  1.00  0.00     0.044 C 
ATOM     34  C   UNL     1       8.499   1.013  -1.483  1.00  0.00     0.064 C 
ATOM     35  C   UNL     1       8.500   0.212   0.693  1.00  0.00     0.064 C 
ATOM     36  O   UNL     1       9.222   0.424  -0.467  1.00  0.00    -0.378 OA
ENDBRANCH  28  29
ENDBRANCH  22  23
ENDBRANCH   3  17
TORSDOF 6

