REMARK SMILES Cc1[nH]cnc1CCN
REMARK SMILES IDX 7 1 6 2 1 3 2 4 3 5 4 6 5 7 8 8 9 9
REMARK H PARENT
REMARK Flexibility Score: inf
ROOT
ATOM      1  C   UNL     1       1.263  -0.064  -1.141  1.00  0.00     0.004 C 
ENDROOT
BRANCH   1   2
ATOM      2  C   UNL     1      -0.148  -0.083  -0.658  1.00  0.00     0.062 A 
ATOM      3  C   UNL     1      -0.372   2.134   0.497  1.00  0.00    -0.023 C 
ATOM      4  C   UNL     1      -0.702   0.692   0.351  1.00  0.00     0.035 A 
ATOM      5  N   UNL     1      -1.935   0.169   0.553  1.00  0.00    -0.348 N 
ATOM      6  C   UNL     1      -1.774  -1.153   0.294  1.00  0.00     0.092 A 
ATOM      7  N   UNL     1      -0.952  -1.168  -0.779  1.00  0.00    -0.242 NA
ENDBRANCH   1   2
BRANCH   1   8
ATOM      8  C   UNL     1       2.244   0.265  -0.046  1.00  0.00    -0.002 C 
ATOM      9  N   UNL     1       2.377  -0.791   0.928  1.00  0.00    -0.330 NA
ENDBRANCH   1   8
TORSDOF 2

