
     RDKit          3D

 23 25  0  0  0  0  0  0  0  0999 V2000
   -1.7492    1.7130   -0.1312 O   0  0  0  0  0  0  0  0  0  0  0  0
   -1.1437    0.6057   -0.2656 C   0  0  0  0  0  0  0  0  0  0  0  0
   -1.8890   -0.5842   -0.6973 C   0  0  0  0  0  0  0  0  0  0  0  0
   -1.5920   -1.8543   -0.2181 C   0  0  0  0  0  0  0  0  0  0  0  0
   -2.5845   -2.7705    0.1063 C   0  0  0  0  0  0  0  0  0  0  0  0
   -3.9230   -2.4176   -0.0181 C   0  0  0  0  0  0  0  0  0  0  0  0
   -5.1217   -2.8968    1.1812 Cl  0  0  0  0  0  0  0  0  0  0  0  0
   -4.1659   -1.4015   -0.9340 C   0  0  0  0  0  0  0  0  0  0  0  0
   -3.1874   -0.4416   -1.1725 C   0  0  0  0  0  0  0  0  0  0  0  0
    0.2712    0.5190   -0.0570 N   0  0  0  0  0  0  0  0  0  0  0  0
    0.7812   -0.7369    0.4872 C   0  0  0  0  0  0  0  0  0  0  0  0
    2.0833   -1.1113   -0.1116 C   0  0  0  0  0  0  0  0  0  0  0  0
    2.5129   -2.4171    0.0704 C   0  0  0  0  0  0  0  0  0  0  0  0
    3.8610   -2.7304    0.1971 C   0  0  0  0  0  0  0  0  0  0  0  0
    4.7967   -1.7217    0.0335 C   0  0  0  0  0  0  0  0  0  0  0  0
    4.3576   -0.5115   -0.4572 C   0  0  0  0  0  0  0  0  0  0  0  0
    3.0090   -0.2228   -0.5818 C   0  0  0  0  0  0  0  0  0  0  0  0
    0.9571    1.7081    0.4446 C   0  0  0  0  0  0  0  0  0  0  0  0
    1.3769    2.6369   -0.6551 C   0  0  0  0  0  0  0  0  0  0  0  0
    0.4315    3.7945   -0.8246 C   0  0  0  0  0  0  0  0  0  0  0  0
    0.3624    4.6340    0.4216 C   0  0  0  0  0  0  0  0  0  0  0  0
    0.4484    3.8305    1.6867 C   0  0  0  0  0  0  0  0  0  0  0  0
    0.1072    2.3764    1.4956 C   0  0  0  0  0  0  0  0  0  0  0  0
  1  2  2  0
  2  3  1  0
  3  4  2  0
  4  5  1  0
  5  6  2  0
  6  7  1  0
  6  8  1  0
  8  9  2  0
  2 10  1  0
 10 11  1  0
 11 12  1  0
 12 13  2  0
 13 14  1  0
 14 15  2  0
 15 16  1  0
 16 17  2  0
 10 18  1  0
 18 19  1  0
 19 20  1  0
 20 21  1  0
 21 22  1  0
 22 23  1  0
  9  3  1  0
 17 12  1  0
 23 18  1  0
M  END
>  <zinc_id>  (1) 
ZINC000078210787

>  <smiles>  (1) 
O=C(c1ccc(Cl)cc1)N(Cc1ccccc1)C1CCCCC1

$$$$
