
     RDKit          3D

 13 14  0  0  0  0  0  0  0  0999 V2000
   -3.0351   -1.0317    0.9981 C   0  0  0  0  0  0  0  0  0  0  0  0
   -2.0115   -0.4144    0.1086 C   0  0  0  0  0  0  0  0  0  0  0  0
   -1.9351    0.9174    0.1218 C   0  0  0  0  0  0  0  0  0  0  0  0
   -0.6590    1.5556   -0.2259 C   0  0  0  0  0  0  0  0  0  0  0  0
   -0.5498    2.8116   -0.2736 O   0  0  0  0  0  0  0  0  0  0  0  0
    0.5949    0.8005   -0.2649 C   0  0  0  0  0  0  0  0  0  0  0  0
    1.7685    1.2738    0.2956 C   0  0  0  0  0  0  0  0  0  0  0  0
    2.7832    0.4247    0.7228 C   0  0  0  0  0  0  0  0  0  0  0  0
    2.7662   -0.8798    0.2425 C   0  0  0  0  0  0  0  0  0  0  0  0
    1.6361   -1.3078   -0.4448 C   0  0  0  0  0  0  0  0  0  0  0  0
    0.4766   -0.5622   -0.4934 C   0  0  0  0  0  0  0  0  0  0  0  0
   -0.8605   -1.1642   -0.4109 C   0  0  0  0  0  0  0  0  0  0  0  0
   -0.9742   -2.4235   -0.3758 O   0  0  0  0  0  0  0  0  0  0  0  0
  1  2  1  0
  2  3  2  0
  3  4  1  0
  4  5  2  0
  4  6  1  0
  6  7  2  0
  7  8  1  0
  8  9  2  0
  9 10  1  0
 10 11  2  0
 11 12  1  0
 12 13  2  0
 12  2  1  0
 11  6  1  0
M  END
>  <zinc_id>  (1) 
ZINC000000001677

>  <smiles>  (1) 
CC1=CC(=O)c2ccccc2C1=O

$$$$
