
     RDKit          3D

 28 31  0  0  0  0  0  0  0  0999 V2000
   -2.7515   -2.5342   -2.0424 C   0  0  0  0  0  0  0  0  0  0  0  0
   -2.9803   -0.9293   -1.8310 C   0  0  2  0  0  0  0  0  0  0  0  0
   -1.4104   -0.6120   -2.1311 C   0  0  0  0  0  0  0  0  0  0  0  0
   -0.7622   -1.1377   -0.7556 C   0  0  1  0  0  0  0  0  0  0  0  0
    0.4446    0.0474   -0.8153 C   0  0  2  0  0  0  0  0  0  0  0  0
    1.4295   -0.9277   -1.6361 C   0  0  0  0  0  0  0  0  0  0  0  0
    2.5925   -1.4149   -0.9852 C   0  0  0  0  0  0  0  0  0  0  0  0
    3.2808   -0.6066    0.0325 C   0  0  0  0  0  0  0  0  0  0  0  0
    4.5238   -0.1619   -0.0371 C   0  0  0  0  0  0  0  0  0  0  0  0
    4.8986    1.1866    0.4196 C   0  0  0  0  0  0  0  0  0  0  0  0
    5.9113    1.7854   -0.0564 O   0  0  0  0  0  0  0  0  0  0  0  0
    3.9913    1.8244    1.3863 C   0  0  0  0  0  0  0  0  0  0  0  0
    2.8197    1.2194    1.6302 C   0  0  0  0  0  0  0  0  0  0  0  0
    2.3143    0.4470    0.5031 C   0  0  1  0  0  0  0  0  0  0  0  0
    2.3856    1.4465   -0.6593 C   0  0  0  0  0  0  0  0  0  0  0  0
    1.0624   -0.2921    0.6209 C   0  0  2  0  0  0  0  0  0  0  0  0
    0.9918   -1.5587    0.9394 F   0  0  0  0  0  0  0  0  0  0  0  0
    0.1696    0.4933    1.7400 C   0  0  1  0  0  0  0  0  0  0  0  0
   -0.0760    1.7055    0.8621 O   0  0  0  0  0  0  0  0  0  0  0  0
   -1.2563   -0.2308    1.3881 C   0  0  0  0  0  0  0  0  0  0  0  0
   -1.6892   -0.1039    0.0650 C   0  0  1  0  0  0  0  0  0  0  0  0
   -1.8358    1.1608   -0.6725 C   0  0  0  0  0  0  0  0  0  0  0  0
   -2.8843   -0.9320   -0.2090 C   0  0  2  0  0  0  0  0  0  0  0  0
   -2.9314   -2.1804    0.2865 O   0  0  0  0  0  0  0  0  0  0  0  0
   -4.0638   -0.1337    0.2763 C   0  0  0  0  0  0  0  0  0  0  0  0
   -5.0140   -0.7956    0.6981 O   0  0  0  0  0  0  0  0  0  0  0  0
   -4.5157    1.0626   -0.5138 C   0  0  0  0  0  0  0  0  0  0  0  0
   -4.6450    2.1727    0.3389 O   0  0  0  0  0  0  0  0  0  0  0  0
  2  1  1  6
  2  3  1  0
  4  3  1  6
  4  5  1  0
  5  6  1  6
  6  7  1  0
  7  8  1  0
  8  9  2  0
  9 10  1  0
 10 11  2  0
 10 12  1  0
 12 13  2  0
 13 14  1  0
 14 15  1  6
 14 16  1  0
 16 17  1  1
 16 18  1  0
 18 19  1  6
 18 20  1  0
 20 21  1  0
 21 22  1  6
 21 23  1  0
 23 24  1  1
 23 25  1  0
 25 26  2  0
 25 27  1  0
 27 28  1  0
 23  2  1  0
 21  4  1  0
 16  5  1  0
 14  8  1  0
M  END
>  <zinc_id>  (1) 
ZINC000003875332

>  <smiles>  (1) 
C[C@@H]1C[C@H]2[C@@H]3CCC4=CC(=O)C=C[C@]4(C)[C@@]3(F)[C@@H](O)C[C@]2(C)[C@@]1(O)C(=O)CO

$$$$
