
     RDKit          3D

 27 29  0  0  0  0  0  0  0  0999 V2000
   -5.1126    4.2048    1.8657 C   0  0  0  0  0  0  0  0  0  0  0  0
   -4.0278    3.1763    1.8549 C   0  0  0  0  0  0  0  0  0  0  0  0
   -3.0163    3.2598    0.9088 C   0  0  0  0  0  0  0  0  0  0  0  0
   -2.3751    2.1501    0.4083 C   0  0  0  0  0  0  0  0  0  0  0  0
   -2.7965    0.9071    0.8380 C   0  0  0  0  0  0  0  0  0  0  0  0
   -2.7410   -0.2655   -0.0359 C   0  0  0  0  0  0  0  0  0  0  0  0
   -3.8943   -0.8105   -0.5888 C   0  0  0  0  0  0  0  0  0  0  0  0
   -3.8438   -2.0771   -1.1493 C   0  0  0  0  0  0  0  0  0  0  0  0
   -2.7907   -2.8932   -0.7787 C   0  0  0  0  0  0  0  0  0  0  0  0
   -2.8681   -4.2309   -0.6864 F   0  0  0  0  0  0  0  0  0  0  0  0
   -1.5888   -2.2904   -0.4358 C   0  0  0  0  0  0  0  0  0  0  0  0
   -1.5341   -0.9544   -0.0613 C   0  0  0  0  0  0  0  0  0  0  0  0
   -0.3057   -0.1247   -0.2650 C   0  0  0  0  0  0  0  0  0  0  0  0
    0.0792   -0.3216   -1.6234 O   0  0  0  0  0  0  0  0  0  0  0  0
    1.3986   -0.6854   -1.9035 C   0  0  0  0  0  0  0  0  0  0  0  0
    2.3708    0.3043   -1.9143 C   0  0  0  0  0  0  0  0  0  0  0  0
    3.6379    0.1002   -1.3852 C   0  0  0  0  0  0  0  0  0  0  0  0
    3.9646   -1.1244   -0.8142 C   0  0  0  0  0  0  0  0  0  0  0  0
    4.8203   -1.2152    0.4053 C   0  0  0  0  0  0  0  0  0  0  0  0
    5.9861   -0.2585    0.3374 C   0  0  0  0  0  0  0  0  0  0  0  0
    5.6534    1.0436    0.9947 C   0  0  0  0  0  0  0  0  0  0  0  0
    6.0847    1.2788    2.1628 O   0  0  0  0  0  0  0  0  0  0  0  0
    5.5555    2.1446    0.1377 O   0  0  0  0  0  0  0  0  0  0  0  0
    3.1333   -2.1772   -1.1599 C   0  0  0  0  0  0  0  0  0  0  0  0
    1.8574   -1.9758   -1.6702 C   0  0  0  0  0  0  0  0  0  0  0  0
   -3.5112    0.8571    2.0138 C   0  0  0  0  0  0  0  0  0  0  0  0
   -4.1357    1.9782    2.5443 C   0  0  0  0  0  0  0  0  0  0  0  0
  1  2  1  0
  2  3  2  0
  3  4  1  0
  4  5  2  0
  5  6  1  0
  6  7  2  0
  7  8  1  0
  8  9  2  0
  9 10  1  0
  9 11  1  0
 11 12  2  0
 12 13  1  0
 13 14  1  0
 14 15  1  0
 15 16  2  0
 16 17  1  0
 17 18  2  0
 18 19  1  0
 19 20  1  0
 20 21  1  0
 21 22  2  0
 21 23  1  0
 18 24  1  0
 24 25  2  0
  5 26  1  0
 26 27  2  0
 27  2  1  0
 12  6  1  0
 25 15  1  0
M  END
>  <zinc_id>  (1) 
ZINC000081213892

>  <smiles>  (1) 
Cc1ccc(-c2ccc(F)cc2COc2ccc(CCC(=O)O)cc2)cc1

$$$$
