REMARK SMILES COc1ccc(N(C(=O)Oc2c(C)cccc2C)c2ccnc(Nc3ccc(N4CCN(C)CC4)cc3)n2)c(OC)c1
REMARK SMILES IDX 19 1 20 2 21 3 22 4 23 5 38 6 7 7 6 8 3 9 4 10 42 11 5 12
REMARK SMILES IDX 39 13 2 14 1 15 40 16 41 17 8 18 9 19 10 20 11 21 12 22
REMARK SMILES IDX 17 23 13 24 14 25 16 26 18 27 15 28 24 29 25 30 26 31 37 32
REMARK SMILES IDX 27 33 36 34 28 35 29 36 30 37 35 38 31 39 34 40 32 41 33 42
REMARK H PARENT
REMARK Flexibility Score: inf
ROOT
ATOM      1  C   UNL     1      -0.780   1.145   1.047  1.00  0.00     0.148 A 
ATOM      2  C   UNL     1      -0.385   1.966   2.096  1.00  0.00     0.000 A 
ATOM      3  C   UNL     1       0.922   1.917   2.566  1.00  0.00     0.035 A 
ATOM      4  N   UNL     1       1.724   0.907   2.166  1.00  0.00    -0.221 NA
ATOM      5  C   UNL     1       1.443   0.371   0.954  1.00  0.00     0.229 A 
ATOM      6  N   UNL     1       0.125   0.205   0.682  1.00  0.00    -0.195 NA
ENDROOT
BRANCH   1   7
ATOM      7  N   UNL     1      -2.166   0.783   1.034  1.00  0.00    -0.225 N 
BRANCH   7   8
ATOM      8  C   UNL     1      -2.511  -0.497   1.573  1.00  0.00     0.096 A 
ATOM      9  C   UNL     1      -4.480  -2.384   2.283  1.00  0.00     0.122 A 
ATOM     10  C   UNL     1      -3.970  -1.498   3.224  1.00  0.00    -0.018 A 
ATOM     11  C   UNL     1      -3.780  -2.502   1.090  1.00  0.00     0.024 A 
ATOM     12  C   UNL     1      -2.918  -0.653   2.892  1.00  0.00    -0.030 A 
ATOM     13  C   UNL     1      -3.031  -1.415   0.670  1.00  0.00     0.146 A 
BRANCH   9  14
ATOM     14  O   UNL     1      -5.703  -3.024   2.477  1.00  0.00    -0.497 OA
ATOM     15  C   UNL     1      -6.893  -2.288   2.652  1.00  0.00     0.078 C 
ENDBRANCH   9  14
BRANCH  13  16
ATOM     16  O   UNL     1      -2.354  -1.541  -0.545  1.00  0.00    -0.494 OA
ATOM     17  C   UNL     1      -2.699  -2.540  -1.496  1.00  0.00     0.078 C 
ENDBRANCH  13  16
ENDBRANCH   7   8
BRANCH   7  18
ATOM     18  C   UNL     1      -3.149   1.531   0.334  1.00  0.00     0.425 C 
ATOM     19  O   UNL     1      -3.319   2.775   0.501  1.00  0.00    -0.223 OA
BRANCH  18  20
ATOM     20  O   UNL     1      -3.753   0.999  -0.809  1.00  0.00    -0.409 OA
BRANCH  20  21
ATOM     21  C   UNL     1      -5.021   1.422  -1.222  1.00  0.00     0.138 A 
ATOM     22  C   UNL     1      -5.247   1.659  -2.571  1.00  0.00    -0.008 A 
ATOM     23  C   UNL     1      -6.103   1.024  -0.450  1.00  0.00    -0.008 A 
ATOM     24  C   UNL     1      -4.144   2.294  -3.351  1.00  0.00    -0.036 C 
ATOM     25  C   UNL     1      -6.477   1.367  -3.110  1.00  0.00    -0.056 A 
ATOM     26  C   UNL     1      -7.330   0.705  -1.019  1.00  0.00    -0.056 A 
ATOM     27  C   UNL     1      -5.962   1.228   1.025  1.00  0.00    -0.036 C 
ATOM     28  C   UNL     1      -7.486   0.735  -2.398  1.00  0.00    -0.061 A 
ENDBRANCH  20  21
ENDBRANCH  18  20
ENDBRANCH   7  18
ENDBRANCH   1   7
BRANCH   5  29
ATOM     29  N   UNL     1       2.368  -0.596   0.462  1.00  0.00    -0.324 N 
BRANCH  29  30
ATOM     30  C   UNL     1       3.723  -0.318   0.185  1.00  0.00     0.041 A 
ATOM     31  C   UNL     1       4.165  -0.392  -1.129  1.00  0.00    -0.036 A 
ATOM     32  C   UNL     1       4.622   0.172   1.109  1.00  0.00    -0.036 A 
ATOM     33  C   UNL     1       5.403   0.105  -1.505  1.00  0.00    -0.037 A 
ATOM     34  C   UNL     1       5.900   0.574   0.740  1.00  0.00    -0.037 A 
ATOM     35  C   UNL     1       6.361   0.349  -0.531  1.00  0.00     0.037 A 
BRANCH  35  36
ATOM     36  N   UNL     1       7.739   0.456  -0.898  1.00  0.00    -0.369 N 
ATOM     37  C   UNL     1       8.116   1.278  -2.035  1.00  0.00     0.031 C 
ATOM     38  C   UNL     1       8.680  -0.305  -0.114  1.00  0.00     0.031 C 
ATOM     39  C   UNL     1       9.454   0.903  -2.607  1.00  0.00     0.016 C 
ATOM     40  C   UNL     1       9.973  -0.574  -0.834  1.00  0.00     0.016 C 
ATOM     41  N   UNL     1       9.872  -0.433  -2.264  1.00  0.00    -0.303 NA
ATOM     42  C   UNL     1       9.068  -1.462  -2.875  1.00  0.00    -0.013 C 
ENDBRANCH  35  36
ENDBRANCH  29  30
ENDBRANCH   5  29
TORSDOF 10

