
     RDKit          3D

 23 25  0  0  0  0  0  0  0  0999 V2000
    6.3503   -0.2168    0.6737 C   0  0  0  0  0  0  0  0  0  0  0  0
    6.5010    0.9172   -0.3288 C   0  0  0  0  0  0  0  0  0  0  0  0
    7.0707    0.3937   -1.6178 C   0  0  0  0  0  0  0  0  0  0  0  0
    5.2886    1.5967   -0.5503 O   0  0  0  0  0  0  0  0  0  0  0  0
    4.1183    0.9111   -0.8901 C   0  0  0  0  0  0  0  0  0  0  0  0
    4.1450   -0.4336   -1.2258 C   0  0  0  0  0  0  0  0  0  0  0  0
    3.0276   -1.2465   -1.1130 C   0  0  0  0  0  0  0  0  0  0  0  0
    1.9839   -0.7763   -0.3475 C   0  0  0  0  0  0  0  0  0  0  0  0
    0.9742   -1.6338    0.3016 C   0  0  0  0  0  0  0  0  0  0  0  0
   -0.3396   -0.9511    0.2376 C   0  0  0  0  0  0  0  0  0  0  0  0
   -0.7965   -0.4447   -0.9726 C   0  0  0  0  0  0  0  0  0  0  0  0
   -2.1507   -0.2104   -1.1739 C   0  0  0  0  0  0  0  0  0  0  0  0
   -3.0105   -0.5031   -0.1259 C   0  0  0  0  0  0  0  0  0  0  0  0
   -4.4264   -0.5427   -0.3333 N   0  0  0  0  0  0  0  0  0  0  0  0
   -5.2673    0.1740    0.5530 C   0  0  0  0  0  0  0  0  0  0  0  0
   -4.8608    1.2233    1.2047 N   0  0  0  0  0  0  0  0  0  0  0  0
   -5.9661    2.0643    1.5767 C   0  0  0  0  0  0  0  0  0  0  0  0
   -7.1709    1.1421    1.5656 C   0  0  0  0  0  0  0  0  0  0  0  0
   -6.6189   -0.0419    0.9174 N   0  0  0  0  0  0  0  0  0  0  0  0
   -2.4675   -0.4498    1.1511 C   0  0  0  0  0  0  0  0  0  0  0  0
   -1.1090   -0.6678    1.3422 C   0  0  0  0  0  0  0  0  0  0  0  0
    1.8624    0.5920   -0.2014 C   0  0  0  0  0  0  0  0  0  0  0  0
    2.8625    1.4495   -0.6433 C   0  0  0  0  0  0  0  0  0  0  0  0
  1  2  1  0
  2  3  1  0
  2  4  1  0
  4  5  1  0
  5  6  2  0
  6  7  1  0
  7  8  2  0
  8  9  1  0
  9 10  1  0
 10 11  2  0
 11 12  1  0
 12 13  2  0
 13 14  1  0
 14 15  1  0
 15 16  2  0
 16 17  1  0
 17 18  1  0
 18 19  1  0
 13 20  1  0
 20 21  2  0
  8 22  1  0
 22 23  2  0
 23  5  1  0
 21 10  1  0
 19 15  1  0
M  END
>  <zinc_id>  (1) 
ZINC000000007547

>  <smiles>  (1) 
CC(C)Oc1ccc(Cc2ccc(NC3=NCCN3)cc2)cc1

$$$$
