REMARK SMILES CCCC(CCC)C(=O)NCc1ccc2c(cnn2-c2ccccc2OC)c1
REMARK SMILES IDX 8 1 9 2 10 3 4 4 3 5 2 6 1 7 5 8 6 9 7 10 11 11 12 12 13 13
REMARK SMILES IDX 28 14 14 15 16 16 15 17 17 18 19 19 18 20 20 21 21 22 25 23
REMARK SMILES IDX 22 24 24 25 23 26 26 27 27 28
REMARK H PARENT
REMARK Flexibility Score: inf
ROOT
ATOM      1  C   UNL     1       3.575  -0.809   1.278  1.00  0.00     0.223 C 
ATOM      2  O   UNL     1       2.673  -1.576   1.734  1.00  0.00    -0.275 OA
ATOM      3  N   UNL     1       3.164   0.050   0.213  1.00  0.00    -0.352 N 
ENDROOT
BRANCH   1   4
ATOM      4  C   UNL     1       4.968  -1.223   1.514  1.00  0.00     0.038 C 
BRANCH   4   5
ATOM      5  C   UNL     1       5.928  -0.091   1.677  1.00  0.00    -0.042 C 
BRANCH   5   6
ATOM      6  C   UNL     1       6.143   0.719   0.431  1.00  0.00    -0.055 C 
ATOM      7  C   UNL     1       7.308   1.662   0.712  1.00  0.00    -0.065 C 
ENDBRANCH   5   6
ENDBRANCH   4   5
BRANCH   4   8
ATOM      8  C   UNL     1       5.443  -2.315   0.606  1.00  0.00    -0.042 C 
BRANCH   8   9
ATOM      9  C   UNL     1       6.258  -1.828  -0.557  1.00  0.00    -0.055 C 
ATOM     10  C   UNL     1       5.456  -1.830  -1.838  1.00  0.00    -0.065 C 
ENDBRANCH   8   9
ENDBRANCH   4   8
ENDBRANCH   1   4
BRANCH   3  11
ATOM     11  C   UNL     1       2.041  -0.273  -0.660  1.00  0.00     0.043 C 
BRANCH  11  12
ATOM     12  C   UNL     1       0.868   0.599  -0.401  1.00  0.00    -0.028 A 
ATOM     13  C   UNL     1       0.125   0.470   0.765  1.00  0.00    -0.055 A 
ATOM     14  C   UNL     1       0.232   1.262  -1.443  1.00  0.00    -0.046 A 
ATOM     15  C   UNL     1      -1.258   0.590   0.752  1.00  0.00    -0.035 A 
ATOM     16  C   UNL     1      -1.143   1.461  -1.428  1.00  0.00     0.021 A 
ATOM     17  C   UNL     1      -1.927   0.960  -0.398  1.00  0.00     0.074 A 
ATOM     18  C   UNL     1      -2.066   1.929  -2.354  1.00  0.00     0.057 A 
ATOM     19  N   UNL     1      -3.175   0.758  -0.889  1.00  0.00    -0.229 N 
ATOM     20  N   UNL     1      -3.189   1.199  -2.146  1.00  0.00    -0.175 NA
BRANCH  19  21
ATOM     21  C   UNL     1      -4.315   0.483  -0.072  1.00  0.00     0.107 A 
ATOM     22  C   UNL     1      -5.328   1.413   0.120  1.00  0.00    -0.033 A 
ATOM     23  C   UNL     1      -4.673  -0.836   0.182  1.00  0.00     0.144 A 
ATOM     24  C   UNL     1      -6.657   1.013   0.171  1.00  0.00    -0.060 A 
ATOM     25  C   UNL     1      -5.989  -1.252   0.223  1.00  0.00    -0.018 A 
ATOM     26  C   UNL     1      -6.982  -0.319   0.353  1.00  0.00    -0.058 A 
BRANCH  23  27
ATOM     27  O   UNL     1      -3.699  -1.812   0.211  1.00  0.00    -0.494 OA
ATOM     28  C   UNL     1      -3.781  -2.785   1.242  1.00  0.00     0.078 C 
ENDBRANCH  23  27
ENDBRANCH  19  21
ENDBRANCH  11  12
ENDBRANCH   3  11
TORSDOF 9

