
     RDKit          3D

 20 22  0  0  0  0  0  0  0  0999 V2000
    5.3558    2.3040    0.4421 C   0  0  0  0  0  0  0  0  0  0  0  0
    4.3426    1.2510    0.1174 C   0  0  0  0  0  0  0  0  0  0  0  0
    3.1467    1.4130   -0.5016 N   0  0  0  0  0  0  0  0  0  0  0  0
    2.3039    0.4057   -0.1847 C   0  0  0  0  0  0  0  0  0  0  0  0
    2.8940   -0.8222   -0.4721 C   0  0  0  0  0  0  0  0  0  0  0  0
    4.5162   -0.4543   -0.0348 S   0  0  0  0  0  0  0  0  0  0  0  0
    2.0870   -2.0289   -0.7010 C   0  0  0  0  0  0  0  0  0  0  0  0
    2.7279   -3.0689   -0.9480 O   0  0  0  0  0  0  0  0  0  0  0  0
    0.6269   -1.9784   -0.5692 C   0  0  0  0  0  0  0  0  0  0  0  0
    0.0653   -0.7990   -0.2919 C   0  0  0  0  0  0  0  0  0  0  0  0
   -1.3141   -0.7129   -0.6720 N   0  0  0  0  0  0  0  0  0  0  0  0
   -2.3594   -0.4195    0.2441 C   0  0  0  0  0  0  0  0  0  0  0  0
   -2.5018    0.8226    0.8523 C   0  0  0  0  0  0  0  0  0  0  0  0
   -3.7198    1.4892    0.8893 C   0  0  0  0  0  0  0  0  0  0  0  0
   -4.8829    0.7891    0.5998 C   0  0  0  0  0  0  0  0  0  0  0  0
   -6.0495    1.5958    0.1740 C   0  0  0  0  0  0  0  0  0  0  0  0
   -4.7706   -0.5726    0.3518 C   0  0  0  0  0  0  0  0  0  0  0  0
   -3.5242   -1.1808    0.2504 C   0  0  0  0  0  0  0  0  0  0  0  0
    0.8340    0.4370   -0.1993 C   0  0  0  0  0  0  0  0  0  0  0  0
    0.2220    1.5299   -0.4025 O   0  0  0  0  0  0  0  0  0  0  0  0
  1  2  1  0
  2  3  2  0
  3  4  1  0
  4  5  2  0
  5  6  1  0
  5  7  1  0
  7  8  2  0
  7  9  1  0
  9 10  2  0
 10 11  1  0
 11 12  1  0
 12 13  2  0
 13 14  1  0
 14 15  2  0
 15 16  1  0
 15 17  1  0
 17 18  2  0
 10 19  1  0
 19 20  2  0
  6  2  1  0
 18 12  1  0
 19  4  1  0
M  END
>  <zinc_id>  (1) 
ZINC000005930916

>  <smiles>  (1) 
Cc1ccc(NC2=CC(=O)c3sc(C)nc3C2=O)cc1

$$$$
