REMARK SMILES CC(C)c1ccc2oc3nc(N)c(C(=O)O)cc3c(=O)c2c1
REMARK SMILES IDX 4 1 5 2 6 3 7 4 8 5 9 6 10 7 11 8 12 9 13 10 17 11 18 12
REMARK SMILES IDX 19 13 20 14 21 15 22 16 2 17 1 18 3 19 14 20 15 21 16 22
REMARK H PARENT
REMARK Flexibility Score: inf
ROOT
ATOM      1  C   UNL     1      -3.642  -0.691   0.122  1.00  0.00    -0.044 A 
ATOM      2  C   UNL     1      -3.356  -2.049   0.190  1.00  0.00    -0.055 A 
ATOM      3  C   UNL     1      -2.043  -2.451   0.001  1.00  0.00    -0.018 A 
ATOM      4  C   UNL     1      -1.046  -1.502  -0.174  1.00  0.00     0.140 A 
ATOM      5  O   UNL     1       0.204  -1.845  -0.436  1.00  0.00    -0.437 OA
ATOM      6  C   UNL     1       1.157  -0.942  -0.414  1.00  0.00     0.232 A 
ATOM      7  N   UNL     1       2.300  -1.071  -1.129  1.00  0.00    -0.195 NA
ATOM      8  C   UNL     1       3.280  -0.145  -1.005  1.00  0.00     0.142 A 
ATOM      9  N   UNL     1       4.162   0.169  -2.089  1.00  0.00    -0.383 N 
ATOM     10  C   UNL     1       3.230   0.741   0.063  1.00  0.00     0.103 A 
ATOM     11  C   UNL     1       2.040   0.977   0.740  1.00  0.00    -0.027 A 
ATOM     12  C   UNL     1       0.965   0.163   0.405  1.00  0.00     0.086 A 
ATOM     13  C   UNL     1      -0.326   0.650   0.562  1.00  0.00     0.202 A 
ATOM     14  O   UNL     1      -0.583   1.833   0.870  1.00  0.00    -0.288 OA
ATOM     15  C   UNL     1      -1.353  -0.192   0.162  1.00  0.00     0.066 A 
ATOM     16  C   UNL     1      -2.631   0.240  -0.076  1.00  0.00    -0.044 A 
ENDROOT
BRANCH   1  17
ATOM     17  C   UNL     1      -5.084  -0.332   0.041  1.00  0.00    -0.022 C 
ATOM     18  C   UNL     1      -5.704  -0.704   1.369  1.00  0.00    -0.059 C 
ATOM     19  C   UNL     1      -5.238   1.151  -0.141  1.00  0.00    -0.059 C 
ENDBRANCH   1  17
BRANCH  10  20
ATOM     20  C   UNL     1       4.371   1.590   0.384  1.00  0.00     0.339 C 
ATOM     21  O   UNL     1       4.681   1.693   1.609  1.00  0.00    -0.246 OA
ATOM     22  O   UNL     1       4.617   2.717  -0.393  1.00  0.00    -0.478 OA
ENDBRANCH  10  20
TORSDOF 2

