
     RDKit          3D

 20 21  0  0  0  0  0  0  0  0999 V2000
   -4.2196    2.1598    0.1378 C   0  0  0  0  0  0  0  0  0  0  0  0
   -3.7892    0.5995   -0.0672 C   0  0  1  0  0  0  0  0  0  0  0  0
   -3.4063    0.8404   -1.6329 C   0  0  0  0  0  0  0  0  0  0  0  0
   -3.1519   -0.6936   -2.1467 C   0  0  2  0  0  0  0  0  0  0  0  0
   -4.5783   -1.2189   -1.5405 C   0  0  0  0  0  0  0  0  0  0  0  0
   -2.2585   -1.0825   -0.8738 C   0  0  0  0  0  0  0  0  0  0  0  0
   -2.6796   -1.6906    0.0274 O   0  0  0  0  0  0  0  0  0  0  0  0
   -1.3289    0.1890   -0.6399 C   0  0  2  0  0  0  0  0  0  0  0  0
   -0.3461   -0.6264    0.4975 C   0  0  2  0  0  0  0  0  0  0  0  0
    0.4260    0.6397    0.7738 O   0  0  0  0  0  0  0  0  0  0  0  0
    0.6665   -1.1167   -0.6905 C   0  0  0  0  0  0  0  0  0  0  0  0
    2.0502   -0.7151   -0.3671 C   0  0  0  0  0  0  0  0  0  0  0  0
    2.4229    0.6375   -0.9018 C   0  0  0  0  0  0  0  0  0  0  0  0
    3.4784    1.3189   -0.1313 C   0  0  0  0  0  0  0  0  0  0  0  0
    3.4647    2.5828   -0.0180 O   0  0  0  0  0  0  0  0  0  0  0  0
    4.3945    0.5777    0.6834 N   0  0  0  0  0  0  0  0  0  0  0  0
    3.9535   -0.7183    1.1041 C   0  0  0  0  0  0  0  0  0  0  0  0
    4.7007   -1.5733    1.6153 O   0  0  0  0  0  0  0  0  0  0  0  0
    2.4805   -0.9517    1.0466 C   0  0  0  0  0  0  0  0  0  0  0  0
   -2.2795    0.8418    0.4936 C   0  0  0  0  0  0  0  0  0  0  0  0
  2  1  1  1
  2  3  1  0
  3  4  1  0
  4  5  1  1
  4  6  1  0
  6  7  2  0
  8  6  1  6
  8  9  1  0
  9 10  1  1
  9 11  1  0
 11 12  1  0
 12 13  1  0
 13 14  1  0
 14 15  2  0
 14 16  1  0
 16 17  1  0
 17 18  2  0
 17 19  1  0
  8 20  1  0
 20  2  1  0
 19 12  1  0
M  END
>  <zinc_id>  (1) 
ZINC000003872170

>  <smiles>  (1) 
C[C@H]1C[C@H](C)C(=O)[C@H]([C@H](O)CC2CC(=O)NC(=O)C2)C1

$$$$
