REMARK SMILES Cc1cc(-c2ncc(CC(=O)Nc3ccc(-c4cnccn4)cn3)cc2C)ccn1
REMARK SMILES IDX 10 1 11 2 12 3 9 4 8 5 5 6 6 7 26 8 7 9 25 10 27 11 4 12
REMARK SMILES IDX 1 13 2 14 3 15 30 16 29 17 28 18 13 19 14 20 24 21 15 22
REMARK SMILES IDX 23 23 16 24 17 25 18 26 22 27 19 28 21 29 20 30
REMARK H PARENT
REMARK Flexibility Score: inf
ROOT
ATOM      1  C   UNL     1       0.623  -0.118  -0.428  1.00  0.00     0.230 C 
ATOM      2  O   UNL     1       1.044  -0.865  -1.362  1.00  0.00    -0.274 OA
ATOM      3  N   UNL     1       1.024  -0.525   0.885  1.00  0.00    -0.310 N 
ENDROOT
BRANCH   1   4
ATOM      4  C   UNL     1      -0.455   0.894  -0.652  1.00  0.00     0.054 C 
BRANCH   4   5
ATOM      5  C   UNL     1      -1.575   0.622   0.302  1.00  0.00    -0.020 A 
ATOM      6  C   UNL     1      -4.257  -0.145   0.490  1.00  0.00     0.073 A 
ATOM      7  N   UNL     1      -3.256  -1.041   0.670  1.00  0.00    -0.256 NA
ATOM      8  C   UNL     1      -3.890   1.187   0.649  1.00  0.00    -0.024 A 
ATOM      9  C   UNL     1      -1.950  -0.683   0.599  1.00  0.00     0.031 A 
ATOM     10  C   UNL     1      -2.562   1.577   0.518  1.00  0.00    -0.052 A 
ATOM     11  C   UNL     1      -5.008   2.176   0.540  1.00  0.00    -0.038 C 
BRANCH   6  12
ATOM     12  C   UNL     1      -5.436  -0.527  -0.298  1.00  0.00     0.004 A 
ATOM     13  C   UNL     1      -8.893  -1.960  -0.067  1.00  0.00    -0.022 C 
ATOM     14  C   UNL     1      -7.663  -1.294  -0.556  1.00  0.00     0.038 A 
ATOM     15  C   UNL     1      -6.620  -0.927   0.286  1.00  0.00    -0.031 A 
ATOM     16  N   UNL     1      -7.671  -0.769  -1.803  1.00  0.00    -0.262 NA
ATOM     17  C   UNL     1      -6.502  -0.454  -2.413  1.00  0.00     0.028 A 
ATOM     18  C   UNL     1      -5.345  -0.652  -1.678  1.00  0.00    -0.034 A 
ENDBRANCH   6  12
ENDBRANCH   4   5
ENDBRANCH   1   4
BRANCH   3  19
ATOM     19  C   UNL     1       2.426  -0.730   1.100  1.00  0.00     0.132 A 
ATOM     20  C   UNL     1       3.106  -1.772   0.500  1.00  0.00    -0.019 A 
ATOM     21  N   UNL     1       3.128   0.368   1.474  1.00  0.00    -0.238 NA
ATOM     22  C   UNL     1       4.462  -1.643   0.252  1.00  0.00    -0.048 A 
ATOM     23  C   UNL     1       4.447   0.489   1.318  1.00  0.00     0.039 A 
ATOM     24  C   UNL     1       5.107  -0.464   0.567  1.00  0.00     0.020 A 
BRANCH  24  25
ATOM     25  C   UNL     1       6.428  -0.175   0.041  1.00  0.00     0.090 A 
ATOM     26  C   UNL     1       6.590   0.697  -1.020  1.00  0.00     0.053 A 
ATOM     27  N   UNL     1       7.510  -0.456   0.792  1.00  0.00    -0.253 NA
ATOM     28  N   UNL     1       7.754   1.369  -1.135  1.00  0.00    -0.261 NA
ATOM     29  C   UNL     1       8.639   0.253   0.729  1.00  0.00     0.046 A 
ATOM     30  C   UNL     1       8.795   1.172  -0.300  1.00  0.00     0.045 A 
ENDBRANCH  24  25
ENDBRANCH   3  19
TORSDOF 5

