
     RDKit          3D

 35 38  0  0  0  0  0  0  0  0999 V2000
    6.7221   -0.2334    1.4768 C   0  0  0  0  0  0  0  0  0  0  0  0
    7.5394    0.5666    0.6957 O   0  0  0  0  0  0  0  0  0  0  0  0
    8.4935   -0.1509   -0.0064 C   0  0  0  0  0  0  0  0  0  0  0  0
    7.9807   -0.6505   -1.3178 C   0  0  0  0  0  0  0  0  0  0  0  0
    7.3490   -1.7471   -1.3415 O   0  0  0  0  0  0  0  0  0  0  0  0
    7.8813    0.1842   -2.4683 N   0  0  0  0  0  0  0  0  0  0  0  0
    6.8557   -0.1032   -3.4621 C   0  0  0  0  0  0  0  0  0  0  0  0
    5.6174    0.6150   -3.0373 C   0  0  0  0  0  0  0  0  0  0  0  0
    4.5569   -0.0156   -2.5634 C   0  0  0  0  0  0  0  0  0  0  0  0
    3.6586    0.5712   -1.5658 C   0  0  0  0  0  0  0  0  0  0  0  0
    4.1744    1.2814   -0.4895 C   0  0  0  0  0  0  0  0  0  0  0  0
    3.4455    1.4355    0.6828 C   0  0  0  0  0  0  0  0  0  0  0  0
    2.0937    1.1304    0.6409 C   0  0  0  0  0  0  0  0  0  0  0  0
    1.3272    1.3209    1.7325 N   0  0  0  0  0  0  0  0  0  0  0  0
    0.0113    1.5710    1.5314 C   0  0  0  0  0  0  0  0  0  0  0  0
   -0.5961    1.1575    0.4004 N   0  0  0  0  0  0  0  0  0  0  0  0
    0.0993    0.7201   -0.6761 C   0  0  0  0  0  0  0  0  0  0  0  0
   -0.4853   -0.2500   -1.5522 N   0  0  0  0  0  0  0  0  0  0  0  0
   -1.6211   -1.0251   -1.1503 C   0  0  0  0  0  0  0  0  0  0  0  0
   -1.5826   -1.5001    0.1555 C   0  0  0  0  0  0  0  0  0  0  0  0
   -2.7343   -1.8798    0.8174 C   0  0  0  0  0  0  0  0  0  0  0  0
   -3.8970   -1.1895    0.4973 C   0  0  0  0  0  0  0  0  0  0  0  0
   -5.0197   -1.5033    1.2268 O   0  0  0  0  0  0  0  0  0  0  0  0
   -6.1297   -0.6825    1.3615 C   0  0  0  0  0  0  0  0  0  0  0  0
   -6.1446    0.4076    2.2230 C   0  0  0  0  0  0  0  0  0  0  0  0
   -7.3443    0.7599    2.8282 C   0  0  0  0  0  0  0  0  0  0  0  0
   -8.4163   -0.1240    2.8407 C   0  0  0  0  0  0  0  0  0  0  0  0
   -9.5510   -0.0021    3.7839 C   0  0  0  0  0  0  0  0  0  0  0  0
   -8.4768   -0.9687    1.7845 N   0  0  0  0  0  0  0  0  0  0  0  0
   -7.3756   -1.1943    1.0286 C   0  0  0  0  0  0  0  0  0  0  0  0
   -4.0075   -0.7807   -0.8230 C   0  0  0  0  0  0  0  0  0  0  0  0
   -5.3194   -0.6497   -1.5090 C   0  0  0  0  0  0  0  0  0  0  0  0
   -2.8673   -0.5885   -1.5834 C   0  0  0  0  0  0  0  0  0  0  0  0
    1.4790    0.7585   -0.5498 C   0  0  0  0  0  0  0  0  0  0  0  0
    2.2833    0.3786   -1.6121 C   0  0  0  0  0  0  0  0  0  0  0  0
  1  2  1  0
  2  3  1  0
  3  4  1  0
  4  5  2  0
  4  6  1  0
  6  7  1  0
  7  8  1  0
  8  9  2  0
  9 10  1  0
 10 11  2  0
 11 12  1  0
 12 13  2  0
 13 14  1  0
 14 15  2  0
 15 16  1  0
 16 17  2  0
 17 18  1  0
 18 19  1  0
 19 20  2  0
 20 21  1  0
 21 22  2  0
 22 23  1  0
 23 24  1  0
 24 25  2  0
 25 26  1  0
 26 27  2  0
 27 28  1  0
 27 29  1  0
 29 30  2  0
 22 31  1  0
 31 32  1  0
 31 33  2  0
 17 34  1  0
 34 35  2  0
 35 10  1  0
 34 13  1  0
 33 19  1  0
 30 24  1  0
M  END
>  <zinc_id>  (1) 
ZINC000003817105

>  <smiles>  (1) 
COCC(=O)NC/C=C/c1ccc2ncnc(Nc3ccc(Oc4ccc(C)nc4)c(C)c3)c2c1

$$$$
