
     RDKit          3D

 19 20  0  0  0  0  0  0  0  0999 V2000
    4.0317    2.9104   -0.5824 O   0  0  0  0  0  0  0  0  0  0  0  0
    4.0179    1.6723    0.0345 N   0  0  0  0  0  0  0  0  0  0  0  0
    3.6113    0.6002   -0.5523 C   0  0  0  0  0  0  0  0  0  0  0  0
    2.7031   -0.3607    0.0876 C   0  0  0  0  0  0  0  0  0  0  0  0
    2.2327   -0.1762    1.3824 C   0  0  0  0  0  0  0  0  0  0  0  0
    0.8882   -0.3838    1.6706 C   0  0  0  0  0  0  0  0  0  0  0  0
    0.0551   -1.0427    0.7881 C   0  0  0  0  0  0  0  0  0  0  0  0
   -1.3579   -0.6523    0.6834 C   0  0  0  0  0  0  0  0  0  0  0  0
   -2.1920   -1.2476   -0.2257 C   0  0  0  0  0  0  0  0  0  0  0  0
   -3.4047   -0.6569   -0.5610 C   0  0  0  0  0  0  0  0  0  0  0  0
   -3.6325    0.6746   -0.2455 C   0  0  0  0  0  0  0  0  0  0  0  0
   -4.3720    1.4695   -1.1276 O   0  0  0  0  0  0  0  0  0  0  0  0
   -2.8137    1.2708    0.7063 C   0  0  0  0  0  0  0  0  0  0  0  0
   -2.8964    2.6230    0.8135 F   0  0  0  0  0  0  0  0  0  0  0  0
   -1.8167    0.5196    1.2706 C   0  0  0  0  0  0  0  0  0  0  0  0
    0.6428   -1.5109   -0.3747 C   0  0  0  0  0  0  0  0  0  0  0  0
   -0.2387   -2.7279   -1.2653 Cl  0  0  0  0  0  0  0  0  0  0  0  0
    1.9669   -1.2313   -0.6905 C   0  0  0  0  0  0  0  0  0  0  0  0
    2.5751   -1.7499   -1.8121 O   0  0  0  0  0  0  0  0  0  0  0  0
  1  2  1  0
  2  3  2  0
  3  4  1  0
  4  5  2  0
  5  6  1  0
  6  7  2  0
  7  8  1  0
  8  9  2  0
  9 10  1  0
 10 11  2  0
 11 12  1  0
 11 13  1  0
 13 14  1  0
 13 15  2  0
  7 16  1  0
 16 17  1  0
 16 18  2  0
 18 19  1  0
 18  4  1  0
 15  8  1  0
M  END
>  <zinc_id>  (1) 
ZINC000040845165

>  <smiles>  (1) 
O/N=C/c1ccc(-c2ccc(O)c(F)c2)c(Cl)c1O

$$$$
