REMARK SMILES COc1c2occc2cc2ccc(=O)oc12
REMARK SMILES IDX 3 1 4 2 5 3 6 4 7 5 8 6 9 7 10 8 11 9 12 10 13 11 14 12
REMARK SMILES IDX 15 13 16 14 2 15 1 16
REMARK H PARENT
REMARK Flexibility Score: inf
ROOT
ATOM      1  C   UNL     1      -0.549   0.890   0.232  1.00  0.00     0.206 A 
ATOM      2  C   UNL     1      -1.684   0.125  -0.012  1.00  0.00     0.179 A 
ATOM      3  O   UNL     1      -2.854  -0.014   0.589  1.00  0.00    -0.460 OA
ATOM      4  C   UNL     1      -3.352  -1.195   0.287  1.00  0.00     0.092 A 
ATOM      5  C   UNL     1      -2.664  -1.654  -0.827  1.00  0.00    -0.016 A 
ATOM      6  C   UNL     1      -1.525  -0.877  -0.961  1.00  0.00     0.025 A 
ATOM      7  C   UNL     1      -0.263  -1.207  -1.431  1.00  0.00    -0.040 A 
ATOM      8  C   UNL     1       0.863  -0.505  -1.037  1.00  0.00     0.022 A 
ATOM      9  C   UNL     1       2.143  -0.873  -1.358  1.00  0.00    -0.044 A 
ATOM     10  C   UNL     1       3.151  -0.651  -0.428  1.00  0.00     0.024 A 
ATOM     11  C   UNL     1       2.878   0.010   0.759  1.00  0.00     0.336 A 
ATOM     12  O   UNL     1       3.482  -0.295   1.830  1.00  0.00    -0.246 OA
ATOM     13  O   UNL     1       1.745   0.684   0.802  1.00  0.00    -0.419 OA
ATOM     14  C   UNL     1       0.728   0.405   0.004  1.00  0.00     0.184 A 
ENDROOT
BRANCH   1  15
ATOM     15  O   UNL     1      -0.700   2.018   1.011  1.00  0.00    -0.490 OA
ATOM     16  C   UNL     1      -1.401   3.138   0.539  1.00  0.00     0.078 C 
ENDBRANCH   1  15
TORSDOF 1

