REMARK SMILES CC(C)C(=O)c1c(C(C)C)nn2ccccc12
REMARK SMILES IDX 6 1 17 2 16 3 15 4 14 5 13 6 12 7 11 8 7 9 4 10 5 11 2 12
REMARK SMILES IDX 1 13 3 14 8 15 9 16 10 17
REMARK H PARENT
REMARK Flexibility Score: inf
ROOT
ATOM      1  C   UNL     1      -0.136  -0.213  -0.057  1.00  0.00     0.067 A 
ATOM      2  C   UNL     1       1.244  -0.377  -0.098  1.00  0.00     0.077 A 
ATOM      3  C   UNL     1       1.979  -1.379  -0.721  1.00  0.00    -0.035 A 
ATOM      4  C   UNL     1       3.355  -1.202  -0.716  1.00  0.00    -0.059 A 
ATOM      5  C   UNL     1       3.925  -0.031  -0.236  1.00  0.00    -0.044 A 
ATOM      6  C   UNL     1       3.152   0.839   0.523  1.00  0.00     0.029 A 
ATOM      7  N   UNL     1       1.818   0.789   0.289  1.00  0.00    -0.240 N 
ATOM      8  N   UNL     1       0.855   1.694   0.469  1.00  0.00    -0.172 NA
ATOM      9  C   UNL     1      -0.346   1.140   0.176  1.00  0.00     0.077 A 
ENDROOT
BRANCH   1  10
ATOM     10  C   UNL     1      -1.090  -1.258   0.267  1.00  0.00     0.169 C 
ATOM     11  O   UNL     1      -0.760  -2.373   0.763  1.00  0.00    -0.294 OA
BRANCH  10  12
ATOM     12  C   UNL     1      -2.551  -1.092  -0.010  1.00  0.00     0.017 C 
ATOM     13  C   UNL     1      -2.849  -1.963  -1.225  1.00  0.00    -0.055 C 
ATOM     14  C   UNL     1      -3.352  -1.696   1.137  1.00  0.00    -0.055 C 
ENDBRANCH  10  12
ENDBRANCH   1  10
BRANCH   9  15
ATOM     15  C   UNL     1      -1.619   1.835  -0.195  1.00  0.00    -0.002 C 
ATOM     16  C   UNL     1      -1.376   2.781  -1.354  1.00  0.00    -0.057 C 
ATOM     17  C   UNL     1      -2.250   2.507   0.990  1.00  0.00    -0.057 C 
ENDBRANCH   9  15
TORSDOF 3

