
     RDKit          3D

  8  7  0  0  0  0  0  0  0  0999 V2000
   -0.4455   -1.0700    1.3181 N   0  0  0  0  0  0  0  0  0  0  0  0
   -0.1389   -0.2899    0.1204 C   0  0  0  0  0  0  0  0  0  0  0  0
   -1.3231   -0.2766   -0.8201 C   0  0  0  0  0  0  0  0  0  0  0  0
   -2.4751    0.2181   -0.2400 O   0  0  0  0  0  0  0  0  0  0  0  0
    1.0021   -0.9623   -0.6154 C   0  0  0  0  0  0  0  0  0  0  0  0
    2.2435   -0.5580   -0.1612 O   0  0  0  0  0  0  0  0  0  0  0  0
    0.1926    1.0820    0.6175 C   0  0  0  0  0  0  0  0  0  0  0  0
    0.9445    1.8566   -0.2194 O   0  0  0  0  0  0  0  0  0  0  0  0
  1  2  1  0
  2  3  1  0
  3  4  1  0
  2  5  1  0
  5  6  1  0
  2  7  1  0
  7  8  1  0
M  END
>  <zinc_id>  (1) 
ZINC000000896695

>  <smiles>  (1) 
NC(CO)(CO)CO

$$$$
