
     RDKit          3D

 69 71  0  0  0  0  0  0  0  0999 V2000
   -7.9039    4.9291   -0.2957 C   0  0  0  0  0  0  0  0  0  0  0  0
   -7.0798    4.4058   -0.3561 C   0  0  0  0  0  0  0  0  0  0  0  0
   -6.7293    3.1959    0.6563 C   0  0  2  0  0  0  0  0  0  0  0  0
   -5.8011    4.0676    1.6593 C   0  0  0  0  0  0  0  0  0  0  0  0
   -5.4838    2.5432   -0.3240 C   0  0  2  0  0  0  0  0  0  0  0  0
   -4.8014    1.9040    0.9334 N   0  0  0  0  0  0  0  0  0  0  0  0
   -5.1910    0.5860    1.2945 C   0  0  0  0  0  0  0  0  0  0  0  0
   -4.5886    0.1876    2.3232 O   0  0  0  0  0  0  0  0  0  0  0  0
   -5.1877   -0.3878    0.0087 C   0  0  2  0  0  0  0  0  0  0  0  0
   -6.8312   -0.4010   -0.0454 C   0  0  0  0  0  0  0  0  0  0  0  0
   -7.2710   -1.7641   -0.3230 C   0  0  0  0  0  0  0  0  0  0  0  0
   -7.7787   -2.2090   -1.5332 C   0  0  0  0  0  0  0  0  0  0  0  0
   -7.8808   -3.5849   -1.6905 C   0  0  0  0  0  0  0  0  0  0  0  0
   -7.9207   -4.4086   -0.5723 C   0  0  0  0  0  0  0  0  0  0  0  0
   -7.7263   -5.7826   -0.7000 O   0  0  0  0  0  0  0  0  0  0  0  0
   -7.9179   -3.8564    0.6999 C   0  0  0  0  0  0  0  0  0  0  0  0
   -7.6793   -2.5053    0.7824 C   0  0  0  0  0  0  0  0  0  0  0  0
   -5.1244   -1.7130    0.8515 N   0  0  0  0  0  0  0  0  0  0  0  0
   -3.8443   -2.3714    0.8860 C   0  0  0  0  0  0  0  0  0  0  0  0
   -4.0157   -3.5884    1.2100 O   0  0  0  0  0  0  0  0  0  0  0  0
   -2.9666   -2.1408   -0.4494 C   0  0  1  0  0  0  0  0  0  0  0  0
   -2.0495   -1.0593    0.2397 N   0  0  0  0  0  0  0  0  0  0  0  0
   -1.8875   -3.3393   -0.1412 C   0  0  0  0  0  0  0  0  0  0  0  0
   -1.1601   -3.1781    1.4491 S   0  0  0  0  0  0  0  0  0  0  0  0
    0.3292   -1.8092    1.7337 S   0  0  0  0  0  0  0  0  0  0  0  0
    1.8897   -1.9323    0.8811 C   0  0  0  0  0  0  0  0  0  0  0  0
    2.2619   -0.4242    0.3163 C   0  0  1  0  0  0  0  0  0  0  0  0
    3.4796   -0.8764   -0.6438 C   0  0  0  0  0  0  0  0  0  0  0  0
    3.3955   -2.0192   -1.1498 O   0  0  0  0  0  0  0  0  0  0  0  0
    4.0254    0.0873   -1.4718 N   0  0  0  0  0  0  0  0  0  0  0  0
    3.4547    0.9794   -2.4813 C   0  0  0  0  0  0  0  0  0  0  0  0
    3.7005    2.3833   -1.9249 C   0  0  0  0  0  0  0  0  0  0  0  0
    4.4613    2.1374   -0.6208 C   0  0  0  0  0  0  0  0  0  0  0  0
    5.3391    0.9294   -1.3160 C   0  0  1  0  0  0  0  0  0  0  0  0
    5.7821    0.2400    0.0634 C   0  0  0  0  0  0  0  0  0  0  0  0
    5.5800    0.6883    1.1343 O   0  0  0  0  0  0  0  0  0  0  0  0
    6.6032   -0.8090   -0.2312 N   0  0  0  0  0  0  0  0  0  0  0  0
    7.5458   -1.4155    0.8653 C   0  0  1  0  0  0  0  0  0  0  0  0
    8.6184   -1.8194   -0.3212 C   0  0  0  0  0  0  0  0  0  0  0  0
    7.9989   -3.0216   -0.9913 C   0  0  0  0  0  0  0  0  0  0  0  0
    8.4011   -4.1913   -0.0965 C   0  0  0  0  0  0  0  0  0  0  0  0
    8.6586   -3.1691   -2.3383 C   0  0  0  0  0  0  0  0  0  0  0  0
    8.2658   -0.0169    1.2305 C   0  0  0  0  0  0  0  0  0  0  0  0
    7.9349    0.2166    2.4424 O   0  0  0  0  0  0  0  0  0  0  0  0
    9.6662    0.0757    1.1036 N   0  0  0  0  0  0  0  0  0  0  0  0
   10.5880    0.3311    2.2132 C   0  0  0  0  0  0  0  0  0  0  0  0
   11.4306   -0.9069    2.2781 C   0  0  0  0  0  0  0  0  0  0  0  0
   12.4049   -1.1351    1.2515 N   0  0  0  0  0  0  0  0  0  0  0  0
   10.8286   -1.9523    2.6715 O   0  0  0  0  0  0  0  0  0  0  0  0
    1.2122   -0.5733   -0.8492 N   0  0  0  0  0  0  0  0  0  0  0  0
    0.0211    0.0251   -0.3065 C   0  0  0  0  0  0  0  0  0  0  0  0
   -1.0549   -0.4299   -0.7961 O   0  0  0  0  0  0  0  0  0  0  0  0
    0.2454    1.6090   -0.5124 C   0  0  2  0  0  0  0  0  0  0  0  0
    1.4089    1.6646    0.6426 C   0  0  0  0  0  0  0  0  0  0  0  0
    1.1307    2.7011    1.6010 C   0  0  0  0  0  0  0  0  0  0  0  0
    1.4863    4.0490    1.3025 N   0  0  0  0  0  0  0  0  0  0  0  0
    1.2325    2.3853    2.8280 O   0  0  0  0  0  0  0  0  0  0  0  0
   -0.8896    1.9997    0.5048 N   0  0  0  0  0  0  0  0  0  0  0  0
   -1.5469    3.0909   -0.1778 C   0  0  0  0  0  0  0  0  0  0  0  0
   -1.9884    3.9700    0.6099 O   0  0  0  0  0  0  0  0  0  0  0  0
   -2.6466    2.2474   -1.0006 C   0  0  2  0  0  0  0  0  0  0  0  0
   -1.8802    2.3955   -2.4517 C   0  0  0  0  0  0  0  0  0  0  0  0
   -2.8692    1.5293   -3.2373 C   0  0  0  0  0  0  0  0  0  0  0  0
   -2.9277    0.1412   -2.7204 C   0  0  0  0  0  0  0  0  0  0  0  0
   -2.2102   -0.8890   -3.4135 N   0  0  0  0  0  0  0  0  0  0  0  0
   -3.7417   -0.2674   -1.8590 O   0  0  0  0  0  0  0  0  0  0  0  0
   -3.5089    3.5145   -1.3509 N   0  0  0  0  0  0  0  0  0  0  0  0
   -4.4812    3.7885   -0.3261 C   0  0  0  0  0  0  0  0  0  0  0  0
   -4.8149    4.9492   -0.4305 O   0  0  0  0  0  0  0  0  0  0  0  0
  1  2  1  0
  3  2  1  6
  3  4  1  0
  3  5  1  0
  5  6  1  1
  6  7  1  0
  7  8  2  0
  7  9  1  0
  9 10  1  1
 10 11  1  0
 11 12  2  0
 12 13  1  0
 13 14  2  0
 14 15  1  0
 14 16  1  0
 16 17  2  0
  9 18  1  0
 18 19  1  0
 19 20  2  0
 19 21  1  0
 21 22  1  1
 21 23  1  0
 23 24  1  0
 24 25  1  0
 25 26  1  0
 26 27  1  0
 27 28  1  6
 28 29  2  0
 28 30  1  0
 30 31  1  0
 31 32  1  0
 32 33  1  0
 33 34  1  0
 34 35  1  1
 35 36  2  0
 35 37  1  0
 38 37  1  6
 38 39  1  0
 39 40  1  0
 40 41  1  0
 40 42  1  0
 38 43  1  0
 43 44  2  0
 43 45  1  0
 45 46  1  0
 46 47  1  0
 47 48  1  0
 47 49  2  0
 27 50  1  0
 50 51  1  0
 51 52  2  0
 51 53  1  0
 53 54  1  1
 54 55  1  0
 55 56  1  0
 55 57  2  0
 53 58  1  0
 58 59  1  0
 59 60  2  0
 59 61  1  0
 61 62  1  6
 62 63  1  0
 63 64  1  0
 64 65  1  0
 64 66  2  0
 61 67  1  0
 67 68  1  0
 68 69  2  0
 68  5  1  0
 17 11  1  0
 34 30  1  0
M  END
>  <zinc_id>  (1) 
ZINC000169289398

>  <smiles>  (1) 
CC[C@H](C)[C@@H]1NC(=O)[C@H](Cc2ccc(O)cc2)NC(=O)[C@@H](N)CSSC[C@@H](C(=O)N2CCC[C@H]2C(=O)N[C@@H](CC(C)C)C(=O)NCC(N)=O)NC(=O)[C@H](CC(N)=O)NC(=O)[C@H](CCC(N)=O)NC1=O

$$$$
