
     RDKit          3D

 30 31  0  0  0  0  0  0  0  0999 V2000
   -2.4119    6.8377   -0.3442 C   0  0  0  0  0  0  0  0  0  0  0  0
   -2.8948    5.4995    0.1275 C   0  0  0  0  0  0  0  0  0  0  0  0
   -2.2156    4.5036   -0.6417 O   0  0  0  0  0  0  0  0  0  0  0  0
   -2.0793    3.2797    0.0256 C   0  0  0  0  0  0  0  0  0  0  0  0
   -3.1403    2.7487    0.4022 O   0  0  0  0  0  0  0  0  0  0  0  0
   -0.9831    2.2794   -0.6464 C   0  0  2  0  0  0  0  0  0  0  0  0
   -2.1464    1.5352   -1.5781 C   0  0  0  0  0  0  0  0  0  0  0  0
   -1.0869    1.2094    0.6236 C   0  0  0  0  0  0  0  0  0  0  0  0
   -1.2120   -0.2176   -0.2264 C   0  0  1  0  0  0  0  0  0  0  0  0
   -0.6996   -1.1075    1.0898 C   0  0  0  0  0  0  0  0  0  0  0  0
    0.7846   -1.0111    0.9302 C   0  0  0  0  0  0  0  0  0  0  0  0
    1.4776    0.0713    1.4239 C   0  0  0  0  0  0  0  0  0  0  0  0
    2.8211    0.2008    1.1210 C   0  0  0  0  0  0  0  0  0  0  0  0
    3.3650   -0.5848    0.1288 C   0  0  0  0  0  0  0  0  0  0  0  0
    4.7338   -0.4004   -0.3650 C   0  0  0  0  0  0  0  0  0  0  0  0
    5.1354    0.8866   -0.5943 C   0  0  0  0  0  0  0  0  0  0  0  0
    6.4860    1.1285   -0.7774 C   0  0  0  0  0  0  0  0  0  0  0  0
    7.3656    0.0813   -0.8359 C   0  0  0  0  0  0  0  0  0  0  0  0
    7.0034   -1.1143   -0.2790 C   0  0  0  0  0  0  0  0  0  0  0  0
    5.6651   -1.3365    0.0211 C   0  0  0  0  0  0  0  0  0  0  0  0
    2.6457   -1.6172   -0.4632 C   0  0  0  0  0  0  0  0  0  0  0  0
    1.3270   -1.7529   -0.0989 C   0  0  0  0  0  0  0  0  0  0  0  0
   -2.7404   -0.3759    0.2188 N   0  0  0  0  0  0  0  0  0  0  0  0
   -3.4360   -1.4034   -0.4455 C   0  0  0  0  0  0  0  0  0  0  0  0
   -3.0550   -1.9750   -1.4944 O   0  0  0  0  0  0  0  0  0  0  0  0
   -4.8428   -1.6294    0.0026 C   0  0  0  0  0  0  0  0  0  0  0  0
   -5.1083   -3.1059    0.0461 C   0  0  0  0  0  0  0  0  0  0  0  0
   -3.8513   -3.8463    0.3400 C   0  0  0  0  0  0  0  0  0  0  0  0
   -3.5551   -4.0777    1.5528 O   0  0  0  0  0  0  0  0  0  0  0  0
   -3.3515   -4.7059   -0.6178 O   0  0  0  0  0  0  0  0  0  0  0  0
  1  2  1  0
  2  3  1  0
  3  4  1  0
  4  5  2  0
  6  4  1  1
  6  7  1  0
  6  8  1  0
  9  8  1  1
  9 10  1  0
 10 11  1  0
 11 12  2  0
 12 13  1  0
 13 14  2  0
 14 15  1  0
 15 16  2  0
 16 17  1  0
 17 18  2  0
 18 19  1  0
 19 20  2  0
 14 21  1  0
 21 22  2  0
  9 23  1  0
 23 24  1  0
 24 25  2  0
 24 26  1  0
 26 27  1  0
 27 28  1  0
 28 29  2  0
 28 30  1  0
 22 11  1  0
 20 15  1  0
M  END
>  <zinc_id>  (1) 
ZINC000003792417

>  <smiles>  (1) 
CCOC(=O)[C@H](C)C[C@@H](Cc1ccc(-c2ccccc2)cc1)NC(=O)CCC(=O)O

$$$$
