REMARK SMILES O=C(NNC(=O)c1ccc(CNS(=O)(=O)c2ccc(F)c(Cl)c2)cc1)c1ccccc1
REMARK SMILES IDX 7 1 8 2 9 3 10 4 24 5 25 6 5 7 4 8 6 9 3 10 1 11 2 12 26 13
REMARK SMILES IDX 27 14 31 15 28 16 30 17 29 18 11 19 12 20 13 21 14 22 15 23
REMARK SMILES IDX 16 24 17 25 23 26 18 27 21 28 19 29 22 30 20 31
REMARK H PARENT
REMARK Flexibility Score: inf
ROOT
ATOM      1  C   UNL     1       1.365  -0.408   0.116  1.00  0.00     0.041 A 
ATOM      2  C   UNL     1       0.876   0.841   0.434  1.00  0.00    -0.049 A 
ATOM      3  C   UNL     1      -0.494   1.011   0.584  1.00  0.00    -0.057 A 
ATOM      4  C   UNL     1      -1.344  -0.086   0.573  1.00  0.00    -0.033 A 
ATOM      5  C   UNL     1      -0.767  -1.324   0.685  1.00  0.00    -0.057 A 
ATOM      6  C   UNL     1       0.602  -1.491   0.526  1.00  0.00    -0.049 A 
ENDROOT
BRANCH   1   7
ATOM      7  C   UNL     1       2.780  -0.640  -0.206  1.00  0.00     0.269 C 
ATOM      8  N   UNL     1       3.576  -1.375   0.731  1.00  0.00    -0.263 N 
ATOM      9  O   UNL     1       3.142  -0.770  -1.415  1.00  0.00    -0.267 OA
BRANCH   8  10
ATOM     10  N   UNL     1       4.944  -1.155   0.712  1.00  0.00    -0.263 N 
ATOM     11  O   UNL     1       5.434  -2.497  -1.062  1.00  0.00    -0.267 OA
ATOM     12  C   UNL     1       5.811  -1.560  -0.328  1.00  0.00     0.269 C 
BRANCH  12  13
ATOM     13  C   UNL     1       7.138  -0.943  -0.418  1.00  0.00     0.041 A 
ATOM     14  C   UNL     1       7.439  -0.069  -1.455  1.00  0.00    -0.049 A 
ATOM     15  C   UNL     1       7.941  -0.829   0.709  1.00  0.00    -0.049 A 
ATOM     16  C   UNL     1       8.249   1.038  -1.232  1.00  0.00    -0.061 A 
ATOM     17  C   UNL     1       8.879   0.172   0.857  1.00  0.00    -0.061 A 
ATOM     18  C   UNL     1       8.808   1.276   0.017  1.00  0.00    -0.062 A 
ENDBRANCH  12  13
ENDBRANCH   8  10
ENDBRANCH   1   7
BRANCH   4  19
ATOM     19  C   UNL     1      -2.805   0.079   0.356  1.00  0.00     0.036 C 
BRANCH  19  20
ATOM     20  N   UNL     1      -2.949   1.052  -0.723  1.00  0.00    -0.207 NA
BRANCH  20  21
ATOM     21  S   UNL     1      -4.184   2.166  -0.219  1.00  0.00     0.240 S 
ATOM     22  O   UNL     1      -3.615   2.913   0.967  1.00  0.00    -0.207 OA
ATOM     23  O   UNL     1      -4.553   3.108  -1.320  1.00  0.00    -0.207 OA
BRANCH  21  24
ATOM     24  C   UNL     1      -5.606   1.243   0.244  1.00  0.00     0.084 A 
ATOM     25  C   UNL     1      -6.829   1.847   0.445  1.00  0.00    -0.039 A 
ATOM     26  C   UNL     1      -5.578  -0.141   0.348  1.00  0.00    -0.020 A 
ATOM     27  C   UNL     1      -7.984   1.081   0.462  1.00  0.00    -0.023 A 
ATOM     28  C   UNL     1      -6.719  -0.901   0.141  1.00  0.00     0.078 A 
ATOM     29  C   UNL     1      -7.941  -0.247   0.053  1.00  0.00     0.141 A 
ATOM     30  Cl  UNL     1      -6.652  -2.557  -0.436  1.00  0.00    -0.081 Cl
ATOM     31  F   UNL     1      -8.967  -0.832  -0.602  1.00  0.00    -0.205 F 
ENDBRANCH  21  24
ENDBRANCH  20  21
ENDBRANCH  19  20
ENDBRANCH   4  19
TORSDOF 7

