
     RDKit          3D

 27 29  0  0  0  0  0  0  0  0999 V2000
    4.2333   -2.2204    1.5421 C   0  0  0  0  0  0  0  0  0  0  0  0
    4.1517   -1.0375    0.6618 C   0  0  0  0  0  0  0  0  0  0  0  0
    4.6130    0.0478    1.0939 O   0  0  0  0  0  0  0  0  0  0  0  0
    3.4313   -1.0651   -0.5234 O   0  0  0  0  0  0  0  0  0  0  0  0
    2.9792    0.1166   -1.1178 C   0  0  0  0  0  0  0  0  0  0  0  0
    3.8989    1.1088   -1.4189 C   0  0  0  0  0  0  0  0  0  0  0  0
    3.4081    2.2890   -1.9351 C   0  0  0  0  0  0  0  0  0  0  0  0
    2.0354    2.4549   -2.0648 C   0  0  0  0  0  0  0  0  0  0  0  0
    1.1437    1.6704   -1.3456 C   0  0  0  0  0  0  0  0  0  0  0  0
    1.6504    0.4464   -0.9273 C   0  0  0  0  0  0  0  0  0  0  0  0
    0.7779   -0.4735   -0.1894 C   0  0  0  0  0  0  0  0  0  0  0  0
    1.0203   -1.7164   -0.1865 O   0  0  0  0  0  0  0  0  0  0  0  0
   -0.6014   -0.0672    0.0444 C   0  0  0  0  0  0  0  0  0  0  0  0
   -1.5590   -1.0362    0.3156 C   0  0  0  0  0  0  0  0  0  0  0  0
   -1.4579   -2.2522   -0.3623 O   0  0  0  0  0  0  0  0  0  0  0  0
   -2.1842   -3.3244    0.1598 C   0  0  0  0  0  0  0  0  0  0  0  0
   -2.5916   -4.4273   -0.7658 C   0  0  0  0  0  0  0  0  0  0  0  0
   -1.9780   -3.5620    1.3875 O   0  0  0  0  0  0  0  0  0  0  0  0
   -2.7371   -0.5842    0.8733 C   0  0  0  0  0  0  0  0  0  0  0  0
   -2.8976    0.7560    1.2048 C   0  0  0  0  0  0  0  0  0  0  0  0
   -4.2551    1.1609    1.5895 C   0  0  0  0  0  0  0  0  0  0  0  0
   -5.2126    0.7540    0.8642 O   0  0  0  0  0  0  0  0  0  0  0  0
   -4.4379    2.4242    2.1576 O   0  0  0  0  0  0  0  0  0  0  0  0
   -2.0429    1.7049    0.6556 C   0  0  0  0  0  0  0  0  0  0  0  0
   -0.8997    1.2833    0.0078 C   0  0  0  0  0  0  0  0  0  0  0  0
    0.0116    2.2530   -0.6133 C   0  0  0  0  0  0  0  0  0  0  0  0
   -0.4997    3.2965   -1.1077 O   0  0  0  0  0  0  0  0  0  0  0  0
  1  2  1  0
  2  3  2  0
  2  4  1  0
  4  5  1  0
  5  6  2  0
  6  7  1  0
  7  8  2  0
  8  9  1  0
  9 10  2  0
 10 11  1  0
 11 12  2  0
 11 13  1  0
 13 14  2  0
 14 15  1  0
 15 16  1  0
 16 17  1  0
 16 18  2  0
 14 19  1  0
 19 20  2  0
 20 21  1  0
 21 22  2  0
 21 23  1  0
 20 24  1  0
 24 25  2  0
 25 26  1  0
 26 27  2  0
 10  5  1  0
 25 13  1  0
 26  9  1  0
M  END
>  <zinc_id>  (1) 
ZINC000003812842

>  <smiles>  (1) 
CC(=O)Oc1cccc2c1C(=O)c1c(OC(C)=O)cc(C(=O)O)cc1C2=O

$$$$
