REMARK SMILES CC1(C)C(=O)NC2=C1C(=O)C(=O)c1ccccc12
REMARK SMILES IDX 1 1 2 2 3 3 4 4 5 5 6 6 7 7 8 8 9 9 10 10 11 11 12 12 13 13
REMARK SMILES IDX 14 14 15 15 16 16 17 17 18 18
REMARK H PARENT
REMARK Flexibility Score: inf
ROOT
ATOM      1  C   UNL     1       2.108  -0.047   2.053  1.00  0.00    -0.047 C 
ATOM      2  C   UNL     1       2.279   0.147   0.549  1.00  0.00     0.075 C 
ATOM      3  C   UNL     1       3.300   1.205   0.245  1.00  0.00    -0.047 C 
ATOM      4  C   UNL     1       2.625  -1.175  -0.056  1.00  0.00     0.234 C 
ATOM      5  O   UNL     1       3.728  -1.362  -0.653  1.00  0.00    -0.274 OA
ATOM      6  N   UNL     1       1.369  -1.774  -0.397  1.00  0.00    -0.324 N 
ATOM      7  C   UNL     1       0.363  -0.770  -0.214  1.00  0.00     0.057 C 
ATOM      8  C   UNL     1       0.958   0.416  -0.081  1.00  0.00     0.043 C 
ATOM      9  C   UNL     1       0.240   1.596  -0.542  1.00  0.00     0.232 C 
ATOM     10  O   UNL     1       0.871   2.653  -0.726  1.00  0.00    -0.285 OA
ATOM     11  C   UNL     1      -1.205   1.623  -0.405  1.00  0.00     0.233 C 
ATOM     12  O   UNL     1      -1.869   2.695  -0.274  1.00  0.00    -0.285 OA
ATOM     13  C   UNL     1      -1.870   0.319  -0.293  1.00  0.00     0.035 A 
ATOM     14  C   UNL     1      -3.212   0.294   0.047  1.00  0.00    -0.050 A 
ATOM     15  C   UNL     1      -3.818  -0.931   0.296  1.00  0.00    -0.061 A 
ATOM     16  C   UNL     1      -3.010  -2.011   0.616  1.00  0.00    -0.062 A 
ATOM     17  C   UNL     1      -1.753  -2.043   0.037  1.00  0.00    -0.052 A 
ATOM     18  C   UNL     1      -1.104  -0.837  -0.200  1.00  0.00     0.010 A 
ENDROOT
TORSDOF 0

