
     RDKit          3D

 24 27  0  0  0  0  0  0  0  0999 V2000
   -5.7384   -0.0597    1.2471 O   0  0  0  0  0  0  0  0  0  0  0  0
   -5.6578   -0.1088   -0.1112 C   0  0  0  0  0  0  0  0  0  0  0  0
   -4.1669    0.5818   -0.2835 C   0  0  1  0  0  0  0  0  0  0  0  0
   -3.4336   -0.7241   -0.0469 O   0  0  0  0  0  0  0  0  0  0  0  0
   -2.2799    0.1639   -0.5329 C   0  0  1  0  0  0  0  0  0  0  0  0
   -1.1615   -0.9466   -0.2675 N   0  0  0  0  0  0  0  0  0  0  0  0
   -0.3138   -1.2611   -1.2772 C   0  0  0  0  0  0  0  0  0  0  0  0
    0.9626   -1.2864   -0.8291 N   0  0  0  0  0  0  0  0  0  0  0  0
    1.0004   -0.5525    0.3018 C   0  0  0  0  0  0  0  0  0  0  0  0
   -0.3243   -0.5121    0.7166 C   0  0  0  0  0  0  0  0  0  0  0  0
   -0.5138    0.0716    1.9284 N   0  0  0  0  0  0  0  0  0  0  0  0
    0.4081    0.8916    2.4944 C   0  0  0  0  0  0  0  0  0  0  0  0
    1.4652    1.2380    1.7178 N   0  0  0  0  0  0  0  0  0  0  0  0
    1.9535    0.2796    0.8917 C   0  0  0  0  0  0  0  0  0  0  0  0
    3.2789   -0.0471    0.7537 N   0  0  0  0  0  0  0  0  0  0  0  0
    4.3524    0.5152    0.0270 C   0  0  0  0  0  0  0  0  0  0  0  0
    5.0576   -0.7095   -0.5555 C   0  0  0  0  0  0  0  0  0  0  0  0
    5.7372   -1.2450    0.6789 C   0  0  0  0  0  0  0  0  0  0  0  0
    6.4224    0.0102    1.2024 C   0  0  0  0  0  0  0  0  0  0  0  0
    5.4007    1.0925    0.9724 C   0  0  0  0  0  0  0  0  0  0  0  0
   -2.7230   -0.4561   -2.0797 C   0  0  2  0  0  0  0  0  0  0  0  0
   -1.9240    0.5660   -2.8458 O   0  0  0  0  0  0  0  0  0  0  0  0
   -4.1963    0.4091   -1.9968 C   0  0  2  0  0  0  0  0  0  0  0  0
   -3.6058    1.7949   -2.1062 O   0  0  0  0  0  0  0  0  0  0  0  0
  1  2  1  0
  3  2  1  1
  3  4  1  0
  4  5  1  0
  5  6  1  1
  6  7  1  0
  7  8  2  0
  8  9  1  0
  9 10  2  0
 10 11  1  0
 11 12  2  0
 12 13  1  0
 13 14  2  0
 14 15  1  0
 15 16  1  0
 16 17  1  0
 17 18  1  0
 18 19  1  0
 19 20  1  0
  5 21  1  0
 21 22  1  6
 21 23  1  0
 23 24  1  6
 23  3  1  0
 10  6  1  0
 20 16  1  0
 14  9  1  0
M  END
>  <zinc_id>  (1) 
ZINC000003995996

>  <smiles>  (1) 
OC[C@H]1O[C@@H](n2cnc3c(NC4CCCC4)ncnc32)[C@H](O)[C@@H]1O

$$$$
