
     RDKit          3D

 33 38  0  0  0  0  0  0  0  0999 V2000
   -5.4571   -3.9596   -0.6427 C   0  0  0  0  0  0  0  0  0  0  0  0
   -4.5618   -3.8448    0.3930 C   0  0  0  0  0  0  0  0  0  0  0  0
   -3.9728   -2.6118    0.6165 C   0  0  0  0  0  0  0  0  0  0  0  0
   -3.9728   -1.6196   -0.3565 C   0  0  0  0  0  0  0  0  0  0  0  0
   -3.7812   -0.2368    0.0979 C   0  0  0  0  0  0  0  0  0  0  0  0
   -4.8120    0.6202    0.2998 N   0  0  0  0  0  0  0  0  0  0  0  0
   -4.3253    1.8560    0.4050 N   0  0  0  0  0  0  0  0  0  0  0  0
   -2.9930    1.7312    0.6195 C   0  0  0  0  0  0  0  0  0  0  0  0
   -2.5846    0.4578    0.2406 C   0  0  0  0  0  0  0  0  0  0  0  0
   -1.3639    0.1371   -0.5072 C   0  0  0  0  0  0  0  0  0  0  0  0
   -1.3543   -0.7964   -1.5366 C   0  0  0  0  0  0  0  0  0  0  0  0
   -0.1391   -1.2386   -2.0459 C   0  0  0  0  0  0  0  0  0  0  0  0
    0.8947   -0.3751   -1.8932 N   0  0  0  0  0  0  0  0  0  0  0  0
    0.9196    0.5003   -0.8592 C   0  0  0  0  0  0  0  0  0  0  0  0
    2.1627    0.9842   -0.4759 C   0  0  0  0  0  0  0  0  0  0  0  0
    2.2562    1.6226    0.7522 C   0  0  0  0  0  0  0  0  0  0  0  0
    3.4758    1.9863    1.3152 O   0  0  0  0  0  0  0  0  0  0  0  0
    4.7226    1.5277    0.8632 C   0  0  0  0  0  0  0  0  0  0  0  0
    4.8296    0.0295    0.8067 C   0  0  0  0  0  0  0  0  0  0  0  0
    5.4963   -0.3117   -0.4357 N   0  0  0  0  0  0  0  0  0  0  0  0
    6.6857    0.5315   -0.5279 C   0  0  0  0  0  0  0  0  0  0  0  0
    7.8754   -0.1708    0.1090 C   0  0  0  0  0  0  0  0  0  0  0  0
    7.3964   -0.8204    1.2445 O   0  0  0  0  0  0  0  0  0  0  0  0
    6.7505   -1.9896    0.8511 C   0  0  0  0  0  0  0  0  0  0  0  0
    5.9361   -1.6918   -0.3823 C   0  0  0  0  0  0  0  0  0  0  0  0
    1.1869    1.5376    1.6355 C   0  0  0  0  0  0  0  0  0  0  0  0
    0.0276    0.8548    1.3433 C   0  0  0  0  0  0  0  0  0  0  0  0
   -0.1210    0.4001    0.0569 C   0  0  0  0  0  0  0  0  0  0  0  0
   -2.4756    3.0117    1.1778 C   0  0  0  0  0  0  0  0  0  0  0  0
   -3.7314    3.5606    1.8461 C   0  0  0  0  0  0  0  0  0  0  0  0
   -4.7787    3.1736    0.8084 C   0  0  0  0  0  0  0  0  0  0  0  0
   -4.8428   -1.8247   -1.3761 N   0  0  0  0  0  0  0  0  0  0  0  0
   -5.3488   -3.0311   -1.6681 C   0  0  0  0  0  0  0  0  0  0  0  0
  1  2  2  0
  2  3  1  0
  3  4  2  0
  4  5  1  0
  5  6  2  0
  6  7  1  0
  7  8  1  0
  8  9  2  0
  9 10  1  0
 10 11  2  0
 11 12  1  0
 12 13  2  0
 13 14  1  0
 14 15  2  0
 15 16  1  0
 16 17  1  0
 17 18  1  0
 18 19  1  0
 19 20  1  0
 20 21  1  0
 21 22  1  0
 22 23  1  0
 23 24  1  0
 24 25  1  0
 16 26  2  0
 26 27  1  0
 27 28  2  0
  8 29  1  0
 29 30  1  0
 30 31  1  0
  4 32  1  0
 32 33  2  0
 33  1  1  0
  9  5  1  0
 28 10  1  0
 31  7  1  0
 28 14  1  0
 25 20  1  0
M  END
>  <zinc_id>  (1) 
ZINC000014976393

>  <smiles>  (1) 
c1ccc(-c2nn3c(c2-c2ccnc4cc(OCCN5CCOCC5)ccc24)CCC3)nc1

$$$$
