
     RDKit          3D

 25 26  0  0  0  0  0  0  0  0999 V2000
   -4.7216    3.5413   -0.2305 C   0  0  0  0  0  0  0  0  0  0  0  0
   -4.0457    2.6614   -1.1406 C   0  0  0  0  0  0  0  0  0  0  0  0
   -4.8357    1.4167   -1.4378 C   0  0  0  0  0  0  0  0  0  0  0  0
   -5.0002    0.5200   -0.2216 C   0  0  0  0  0  0  0  0  0  0  0  0
   -5.2525   -0.8636   -0.8206 C   0  0  0  0  0  0  0  0  0  0  0  0
   -3.6960   -1.2612   -1.2033 C   0  0  2  0  0  0  0  0  0  0  0  0
   -4.0033   -2.7494   -1.2518 O   0  0  0  0  0  0  0  0  0  0  0  0
   -3.3106   -1.3329    0.3762 C   0  0  0  0  0  0  0  0  0  0  0  0
   -2.0674   -1.3274    0.6723 C   0  0  0  0  0  0  0  0  0  0  0  0
   -1.3323    0.0131    1.1308 C   0  0  1  0  0  0  0  0  0  0  0  0
   -0.8229   -0.7260    2.5622 C   0  0  2  0  0  0  0  0  0  0  0  0
   -0.2537    0.5853    3.0833 O   0  0  0  0  0  0  0  0  0  0  0  0
    0.6388   -1.2321    2.1000 C   0  0  0  0  0  0  0  0  0  0  0  0
    0.1957   -1.8637    0.6760 C   0  0  2  0  0  0  0  0  0  0  0  0
    1.6268   -1.8113    0.1369 O   0  0  0  0  0  0  0  0  0  0  0  0
    2.1664   -0.6138    0.4880 C   0  0  0  0  0  0  0  0  0  0  0  0
    3.4899   -0.4737    0.4024 C   0  0  0  0  0  0  0  0  0  0  0  0
    4.1943   -1.0117   -0.8098 C   0  0  0  0  0  0  0  0  0  0  0  0
    5.6096   -0.5813   -0.6651 C   0  0  0  0  0  0  0  0  0  0  0  0
    5.6464    0.8729   -0.2057 C   0  0  0  0  0  0  0  0  0  0  0  0
    5.0777    1.7486   -1.2673 C   0  0  0  0  0  0  0  0  0  0  0  0
    5.8788    2.3492   -2.0385 O   0  0  0  0  0  0  0  0  0  0  0  0
    3.7368    2.0590   -1.3762 O   0  0  0  0  0  0  0  0  0  0  0  0
    1.1408    0.3771    0.9363 C   0  0  0  0  0  0  0  0  0  0  0  0
   -0.0601   -0.2964    0.1046 C   0  0  2  0  0  0  0  0  0  0  0  0
  1  2  1  0
  2  3  1  0
  3  4  1  0
  4  5  1  0
  6  5  1  1
  6  7  1  0
  6  8  1  0
  8  9  2  0
 10  9  1  6
 10 11  1  0
 11 12  1  1
 11 13  1  0
 14 13  1  1
 14 15  1  0
 15 16  1  0
 16 17  2  0
 17 18  1  0
 18 19  1  0
 19 20  1  0
 20 21  1  0
 21 22  2  0
 21 23  1  0
 16 24  1  0
 25 24  1  1
 25 10  1  0
 25 14  1  0
M  END
>  <zinc_id>  (1) 
ZINC000003813078

>  <smiles>  (1) 
CCCCC[C@H](O)/C=C/[C@H]1[C@H](O)C[C@@H]2O/C(=C\CCCC(=O)O)C[C@@H]21

$$$$
