
     RDKit          3D

 38 41  0  0  0  0  0  0  0  0999 V2000
   -0.8074   -4.3024    1.9008 C   0  0  0  0  0  0  0  0  0  0  0  0
   -0.7046   -4.8970    0.5098 C   0  0  0  0  0  0  0  0  0  0  0  0
   -0.7773   -3.8238   -0.5487 C   0  0  0  0  0  0  0  0  0  0  0  0
   -1.8086   -2.7669   -0.1745 C   0  0  0  0  0  0  0  0  0  0  0  0
   -1.1379   -1.4907    0.2251 C   0  0  0  0  0  0  0  0  0  0  0  0
    0.0436   -1.3655    0.8769 N   0  0  0  0  0  0  0  0  0  0  0  0
    0.6281   -0.1924    0.5574 C   0  0  0  0  0  0  0  0  0  0  0  0
    2.0597    0.1343    0.5516 C   0  0  0  0  0  0  0  0  0  0  0  0
    2.9373   -0.8026    1.0832 C   0  0  0  0  0  0  0  0  0  0  0  0
    4.2656   -0.8722    0.6951 C   0  0  0  0  0  0  0  0  0  0  0  0
    4.6105   -0.3421   -0.5285 C   0  0  0  0  0  0  0  0  0  0  0  0
    5.7352   -0.7055   -1.2410 O   0  0  0  0  0  0  0  0  0  0  0  0
    6.8820    0.1251   -1.0896 C   0  0  0  0  0  0  0  0  0  0  0  0
    6.7160    1.1327    0.0132 C   0  0  0  0  0  0  0  0  0  0  0  0
    7.8696    1.1686    0.9737 C   0  0  0  0  0  0  0  0  0  0  0  0
    9.0811    0.5987    0.4470 N   0  0  0  0  0  0  0  0  0  0  0  0
    9.0208   -0.8376    0.5387 C   0  0  0  0  0  0  0  0  0  0  0  0
    8.4919   -1.1681    1.9294 C   0  0  0  0  0  0  0  0  0  0  0  0
    9.4261    1.0810   -0.8647 C   0  0  0  0  0  0  0  0  0  0  0  0
   10.7499    0.4635   -1.2599 C   0  0  0  0  0  0  0  0  0  0  0  0
    3.8397    0.7214   -0.9745 C   0  0  0  0  0  0  0  0  0  0  0  0
    2.6084    0.9937   -0.3914 C   0  0  0  0  0  0  0  0  0  0  0  0
   -0.3379    0.4862   -0.1750 C   0  0  0  0  0  0  0  0  0  0  0  0
   -1.4167   -0.3111   -0.3605 N   0  0  0  0  0  0  0  0  0  0  0  0
   -2.7162    0.1534   -0.7423 C   0  0  0  0  0  0  0  0  0  0  0  0
   -2.8264    1.3787   -1.3755 C   0  0  0  0  0  0  0  0  0  0  0  0
   -4.0098    2.1067   -1.3847 C   0  0  0  0  0  0  0  0  0  0  0  0
   -4.9168    1.8229   -0.3819 C   0  0  0  0  0  0  0  0  0  0  0  0
   -5.7286    2.8085    0.1891 O   0  0  0  0  0  0  0  0  0  0  0  0
   -7.0472    2.4191    0.4442 C   0  0  0  0  0  0  0  0  0  0  0  0
   -7.9336    2.5758   -0.6139 C   0  0  0  0  0  0  0  0  0  0  0  0
   -9.0023    1.7243   -0.8198 C   0  0  0  0  0  0  0  0  0  0  0  0
   -9.1359    0.6014   -0.0288 C   0  0  0  0  0  0  0  0  0  0  0  0
   -9.9837   -0.7974   -0.6400 Cl  0  0  0  0  0  0  0  0  0  0  0  0
   -8.4830    0.6101    1.1960 C   0  0  0  0  0  0  0  0  0  0  0  0
   -7.3384    1.3852    1.3242 C   0  0  0  0  0  0  0  0  0  0  0  0
   -4.9798    0.5022    0.0388 C   0  0  0  0  0  0  0  0  0  0  0  0
   -3.8736   -0.3181   -0.1376 C   0  0  0  0  0  0  0  0  0  0  0  0
  1  2  1  0
  2  3  1  0
  3  4  1  0
  4  5  1  0
  5  6  2  0
  6  7  1  0
  7  8  1  0
  8  9  2  0
  9 10  1  0
 10 11  2  0
 11 12  1  0
 12 13  1  0
 13 14  1  0
 14 15  1  0
 15 16  1  0
 16 17  1  0
 17 18  1  0
 16 19  1  0
 19 20  1  0
 11 21  1  0
 21 22  2  0
  7 23  2  0
 23 24  1  0
 24 25  1  0
 25 26  2  0
 26 27  1  0
 27 28  2  0
 28 29  1  0
 29 30  1  0
 30 31  2  0
 31 32  1  0
 32 33  2  0
 33 34  1  0
 33 35  1  0
 35 36  2  0
 28 37  1  0
 37 38  2  0
 24  5  1  0
 38 25  1  0
 22  8  1  0
 36 30  1  0
M  END
>  <zinc_id>  (1) 
ZINC000038336973

>  <smiles>  (1) 
CCCCc1nc(-c2ccc(OCCCN(CC)CC)cc2)cn1-c1ccc(Oc2ccc(Cl)cc2)cc1

$$$$
