
     RDKit          3D

 33 35  0  0  0  0  0  0  0  0999 V2000
   -6.8250   -2.4000   -0.9817 C   0  0  0  0  0  0  0  0  0  0  0  0
   -7.0119   -1.8387    0.3016 O   0  0  0  0  0  0  0  0  0  0  0  0
   -7.0402   -0.4586    0.4853 C   0  0  0  0  0  0  0  0  0  0  0  0
   -8.1537    0.2641    0.1053 C   0  0  0  0  0  0  0  0  0  0  0  0
   -8.1188    1.6463    0.0343 C   0  0  0  0  0  0  0  0  0  0  0  0
   -6.8784    2.2515   -0.0126 C   0  0  0  0  0  0  0  0  0  0  0  0
   -6.5805    3.7668   -0.8268 Cl  0  0  0  0  0  0  0  0  0  0  0  0
   -5.8052    1.5479    0.5192 C   0  0  0  0  0  0  0  0  0  0  0  0
   -5.9284    0.2219    0.9148 C   0  0  0  0  0  0  0  0  0  0  0  0
   -4.6766   -0.4747    1.2374 C   0  0  0  0  0  0  0  0  0  0  0  0
   -3.9393    0.1070    2.0891 O   0  0  0  0  0  0  0  0  0  0  0  0
   -3.9950   -1.1468    0.1786 N   0  0  0  0  0  0  0  0  0  0  0  0
   -2.5466   -1.1771    0.0759 C   0  0  0  0  0  0  0  0  0  0  0  0
   -2.1197    0.1215   -0.5575 C   0  0  0  0  0  0  0  0  0  0  0  0
   -0.6619    0.1274   -0.8937 C   0  0  0  0  0  0  0  0  0  0  0  0
   -0.0995   -0.8273   -1.7324 C   0  0  0  0  0  0  0  0  0  0  0  0
    1.1968   -1.2878   -1.5384 C   0  0  0  0  0  0  0  0  0  0  0  0
    1.9267   -0.8462   -0.4416 C   0  0  0  0  0  0  0  0  0  0  0  0
    3.0452   -1.8962    0.4110 S   0  0  0  0  0  0  0  0  0  0  0  0
    3.1328   -3.1860   -0.3365 O   0  0  0  0  0  0  0  0  0  0  0  0
    2.5293   -2.1927    1.7900 O   0  0  0  0  0  0  0  0  0  0  0  0
    4.5994   -1.1720    0.5143 N   0  0  0  0  0  0  0  0  0  0  0  0
    4.7638   -0.0234    1.0799 C   0  0  0  0  0  0  0  0  0  0  0  0
    3.8811    0.2988    2.0994 O   0  0  0  0  0  0  0  0  0  0  0  0
    5.9197    0.7713    0.8000 N   0  0  0  0  0  0  0  0  0  0  0  0
    6.5795    0.6289   -0.4722 C   0  0  0  0  0  0  0  0  0  0  0  0
    7.7265   -0.3520   -0.4374 C   0  0  0  0  0  0  0  0  0  0  0  0
    8.8699    0.2924   -1.2127 C   0  0  0  0  0  0  0  0  0  0  0  0
    9.3188    1.5278   -0.4726 C   0  0  0  0  0  0  0  0  0  0  0  0
    8.1829    2.5181   -0.4232 C   0  0  0  0  0  0  0  0  0  0  0  0
    6.9502    1.9437   -1.1022 C   0  0  0  0  0  0  0  0  0  0  0  0
    1.5119    0.3658    0.0963 C   0  0  0  0  0  0  0  0  0  0  0  0
    0.2461    0.8787   -0.1575 C   0  0  0  0  0  0  0  0  0  0  0  0
  1  2  1  0
  2  3  1  0
  3  4  2  0
  4  5  1  0
  5  6  2  0
  6  7  1  0
  6  8  1  0
  8  9  2  0
  9 10  1  0
 10 11  2  0
 10 12  1  0
 12 13  1  0
 13 14  1  0
 14 15  1  0
 15 16  2  0
 16 17  1  0
 17 18  2  0
 18 19  1  0
 19 20  2  0
 19 21  2  0
 19 22  1  0
 22 23  2  0
 23 24  1  0
 23 25  1  0
 25 26  1  0
 26 27  1  0
 27 28  1  0
 28 29  1  0
 29 30  1  0
 30 31  1  0
 18 32  1  0
 32 33  2  0
  9  3  1  0
 33 15  1  0
 31 26  1  0
M  END
>  <zinc_id>  (1) 
ZINC000000537805

>  <smiles>  (1) 
COc1ccc(Cl)cc1C(=O)NCCc1ccc(S(=O)(=O)/N=C(\O)NC2CCCCC2)cc1

$$$$
