REMARK SMILES Cc1ccc(-c2nn(C(C)(C)C)c3ncnc(N)c23)cc1
REMARK SMILES IDX 6 1 7 2 8 3 13 4 14 5 15 6 16 7 17 8 18 9 19 10 5 11 1 12
REMARK SMILES IDX 2 13 3 14 21 15 4 16 20 17 9 18 10 19 11 20 12 21
REMARK H PARENT
REMARK Flexibility Score: inf
ROOT
ATOM      1  C   UNL     1       0.216  -0.230  -0.610  1.00  0.00     0.106 A 
ATOM      2  N   UNL     1      -0.444   0.874  -1.009  1.00  0.00    -0.170 NA
ATOM      3  N   UNL     1      -1.615   0.964  -0.384  1.00  0.00    -0.241 N 
ATOM      4  C   UNL     1      -1.933  -0.281   0.023  1.00  0.00     0.164 A 
ATOM      5  N   UNL     1      -3.047  -0.866   0.494  1.00  0.00    -0.217 NA
ATOM      6  C   UNL     1      -3.073  -2.201   0.612  1.00  0.00     0.120 A 
ATOM      7  N   UNL     1      -1.952  -2.952   0.676  1.00  0.00    -0.219 NA
ATOM      8  C   UNL     1      -0.782  -2.280   0.552  1.00  0.00     0.138 A 
ATOM      9  N   UNL     1       0.458  -2.829   0.991  1.00  0.00    -0.383 N 
ATOM     10  C   UNL     1      -0.762  -1.028  -0.032  1.00  0.00     0.089 A 
ENDROOT
BRANCH   1  11
ATOM     11  C   UNL     1       1.641  -0.426  -0.363  1.00  0.00     0.003 A 
ATOM     12  C   UNL     1       5.236   1.572  -0.835  1.00  0.00    -0.040 C 
ATOM     13  C   UNL     1       4.298   0.478  -0.433  1.00  0.00    -0.051 A 
ATOM     14  C   UNL     1       3.824  -0.416  -1.386  1.00  0.00    -0.059 A 
ATOM     15  C   UNL     1       3.560   0.540   0.743  1.00  0.00    -0.059 A 
ATOM     16  C   UNL     1       2.514  -0.878  -1.345  1.00  0.00    -0.052 A 
ATOM     17  C   UNL     1       2.261   0.049   0.787  1.00  0.00    -0.052 A 
ENDBRANCH   1  11
BRANCH   3  18
ATOM     18  C   UNL     1      -2.413   2.159  -0.126  1.00  0.00     0.057 C 
ATOM     19  C   UNL     1      -1.890   3.236  -1.041  1.00  0.00    -0.040 C 
ATOM     20  C   UNL     1      -3.872   1.869  -0.340  1.00  0.00    -0.040 C 
ATOM     21  C   UNL     1      -2.225   2.646   1.306  1.00  0.00    -0.040 C 
ENDBRANCH   3  18
TORSDOF 2

