REMARK SMILES CCCCC[C@H](O)/C=C/[C@H]1[C@H](O)CC(=O)[C@@H]1C/C=C\CCCC(=O)O
REMARK SMILES IDX 10 1 11 2 12 3 13 4 14 5 15 6 16 7 9 8 8 9 6 10 7 11 5 12
REMARK SMILES IDX 4 13 3 14 2 15 1 16 17 17 18 18 19 19 20 20 21 21 22 22
REMARK SMILES IDX 23 23 24 24 25 25
REMARK H PARENT
REMARK Flexibility Score: inf
ROOT
ATOM      1  C   UNL     1      -0.484  -0.932  -0.764  1.00  0.00     0.013 C 
ATOM      2  C   UNL     1      -0.451  -1.225  -2.436  1.00  0.00     0.068 C 
ATOM      3  O   UNL     1       0.830  -2.021  -2.298  1.00  0.00    -0.392 OA
ATOM      4  C   UNL     1       0.356   0.126  -2.856  1.00  0.00     0.033 C 
ATOM      5  C   UNL     1       1.301   0.210  -1.749  1.00  0.00     0.139 C 
ATOM      6  O   UNL     1       2.294  -0.342  -1.488  1.00  0.00    -0.299 OA
ATOM      7  C   UNL     1       0.077   0.646  -0.835  1.00  0.00     0.030 C 
ENDROOT
BRANCH   1   8
ATOM      8  C   UNL     1      -2.017  -0.563  -0.830  1.00  0.00    -0.080 C 
ATOM      9  C   UNL     1      -2.529   0.578  -0.853  1.00  0.00    -0.060 C 
BRANCH   9  10
ATOM     10  C   UNL     1      -3.705   0.979  -1.898  1.00  0.00     0.072 C 
ATOM     11  O   UNL     1      -4.165  -0.457  -2.103  1.00  0.00    -0.389 OA
BRANCH  10  12
ATOM     12  C   UNL     1      -4.771   1.244  -0.667  1.00  0.00    -0.023 C 
BRANCH  12  13
ATOM     13  C   UNL     1      -6.029   0.521  -0.970  1.00  0.00    -0.051 C 
BRANCH  13  14
ATOM     14  C   UNL     1      -6.637   0.077   0.356  1.00  0.00    -0.053 C 
BRANCH  14  15
ATOM     15  C   UNL     1      -5.812   0.591   1.532  1.00  0.00    -0.056 C 
ATOM     16  C   UNL     1      -5.452   0.616   1.659  1.00  0.00    -0.065 C 
ENDBRANCH  14  15
ENDBRANCH  13  14
ENDBRANCH  12  13
ENDBRANCH  10  12
ENDBRANCH   9  10
ENDBRANCH   1   8
BRANCH   7  17
ATOM     17  C   UNL     1       0.884   0.491   0.573  1.00  0.00    -0.025 C 
BRANCH  17  18
ATOM     18  C   UNL     1       2.089   1.353   0.457  1.00  0.00    -0.088 C 
ATOM     19  C   UNL     1       3.182   1.025   1.154  1.00  0.00    -0.088 C 
BRANCH  19  20
ATOM     20  C   UNL     1       3.276  -0.172   2.016  1.00  0.00    -0.035 C 
BRANCH  20  21
ATOM     21  C   UNL     1       4.148  -1.259   1.437  1.00  0.00    -0.039 C 
BRANCH  21  22
ATOM     22  C   UNL     1       5.579  -0.758   1.319  1.00  0.00     0.046 C 
BRANCH  22  23
ATOM     23  C   UNL     1       5.942  -0.277   2.687  1.00  0.00     0.303 C 
ATOM     24  O   UNL     1       6.391  -1.103   3.533  1.00  0.00    -0.252 OA
ATOM     25  O   UNL     1       5.701   1.052   3.021  1.00  0.00    -0.481 OA
ENDBRANCH  22  23
ENDBRANCH  21  22
ENDBRANCH  20  21
ENDBRANCH  19  20
ENDBRANCH  17  18
ENDBRANCH   7  17
TORSDOF 12

