REMARK SMILES O=c1cc(-c2cccc3c2Sc2ccccc2S3)oc(N2CCOCC2)c1
REMARK SMILES IDX 1 1 2 2 3 3 4 4 19 5 20 6 27 7 5 8 6 9 10 10 7 11 9 12 11 13
REMARK SMILES IDX 8 14 18 15 12 16 17 17 13 18 16 19 14 20 15 21 21 22 22 23
REMARK SMILES IDX 26 24 23 25 25 26 24 27
REMARK H PARENT
REMARK Flexibility Score: inf
ROOT
ATOM      1  O   UNL     1      -2.162  -3.368  -2.130  1.00  0.00    -0.290 OA
ATOM      2  C   UNL     1      -1.957  -2.292  -1.499  1.00  0.00     0.187 A 
ATOM      3  C   UNL     1      -0.730  -1.983  -0.925  1.00  0.00     0.029 A 
ATOM      4  C   UNL     1      -0.596  -0.740  -0.319  1.00  0.00     0.141 A 
ATOM      5  O   UNL     1      -1.693  -0.044  -0.070  1.00  0.00    -0.440 OA
ATOM      6  C   UNL     1      -2.900  -0.500  -0.291  1.00  0.00     0.200 A 
ATOM      7  C   UNL     1      -3.096  -1.627  -1.063  1.00  0.00     0.046 A 
ENDROOT
BRANCH   4   8
ATOM      8  C   UNL     1       0.526  -0.475   0.595  1.00  0.00     0.032 A 
ATOM      9  C   UNL     1       0.421  -0.805   1.941  1.00  0.00    -0.050 A 
ATOM     10  C   UNL     1       1.356   0.565   0.194  1.00  0.00     0.037 A 
ATOM     11  C   UNL     1       1.295  -0.231   2.855  1.00  0.00    -0.060 A 
ATOM     12  C   UNL     1       1.993   1.351   1.147  1.00  0.00     0.027 A 
ATOM     13  S   UNL     1       2.021   0.411  -1.470  1.00  0.00    -0.087 SA
ATOM     14  C   UNL     1       1.998   0.892   2.458  1.00  0.00    -0.047 A 
ATOM     15  S   UNL     1       3.290   2.431   0.525  1.00  0.00    -0.088 SA
ATOM     16  C   UNL     1       3.808   0.394  -1.281  1.00  0.00     0.026 A 
ATOM     17  C   UNL     1       4.358   1.381  -0.471  1.00  0.00     0.026 A 
ATOM     18  C   UNL     1       4.469  -0.810  -1.459  1.00  0.00    -0.047 A 
ATOM     19  C   UNL     1       5.621   1.138   0.036  1.00  0.00    -0.047 A 
ATOM     20  C   UNL     1       5.617  -1.126  -0.746  1.00  0.00    -0.061 A 
ATOM     21  C   UNL     1       6.247  -0.098  -0.064  1.00  0.00    -0.061 A 
ENDBRANCH   4   8
BRANCH   6  22
ATOM     22  N   UNL     1      -4.055   0.174   0.226  1.00  0.00    -0.338 N 
ATOM     23  C   UNL     1      -4.488  -0.253   1.554  1.00  0.00     0.044 C 
ATOM     24  C   UNL     1      -4.066   1.617  -0.001  1.00  0.00     0.044 C 
ATOM     25  C   UNL     1      -5.615   0.612   2.055  1.00  0.00     0.064 C 
ATOM     26  C   UNL     1      -5.421   2.173   0.385  1.00  0.00     0.064 C 
ATOM     27  O   UNL     1      -6.240   1.213   0.963  1.00  0.00    -0.378 OA
ENDBRANCH   6  22
TORSDOF 2

