
     RDKit          3D

 20 21  0  0  0  0  0  0  0  0999 V2000
   -3.3024   -1.8436    0.7208 O   0  0  0  0  0  0  0  0  0  0  0  0
   -3.6679   -0.6442    0.5325 C   0  0  0  0  0  0  0  0  0  0  0  0
   -4.0111    0.0471    1.6985 O   0  0  0  0  0  0  0  0  0  0  0  0
   -2.8613    0.1131   -0.4294 C   0  0  0  0  0  0  0  0  0  0  0  0
   -3.5199    1.0416   -1.2194 C   0  0  0  0  0  0  0  0  0  0  0  0
   -2.8670    2.1810   -1.6561 C   0  0  0  0  0  0  0  0  0  0  0  0
   -1.5713    2.4324   -1.2218 C   0  0  0  0  0  0  0  0  0  0  0  0
   -0.8600    1.3614   -0.7922 N   0  0  0  0  0  0  0  0  0  0  0  0
   -1.5385    0.3997   -0.1299 C   0  0  0  0  0  0  0  0  0  0  0  0
   -0.9538   -0.3694    0.9249 N   0  0  0  0  0  0  0  0  0  0  0  0
    0.3350   -0.9230    0.6310 C   0  0  0  0  0  0  0  0  0  0  0  0
    0.4778   -2.1757    0.0483 C   0  0  0  0  0  0  0  0  0  0  0  0
    1.6926   -2.5363   -0.5205 C   0  0  0  0  0  0  0  0  0  0  0  0
    2.7827   -1.6791   -0.4542 C   0  0  0  0  0  0  0  0  0  0  0  0
    2.5999   -0.3952    0.0430 C   0  0  0  0  0  0  0  0  0  0  0  0
    3.7489    0.5145    0.3106 C   0  0  0  0  0  0  0  0  0  0  0  0
    4.3890    0.0963    1.4506 F   0  0  0  0  0  0  0  0  0  0  0  0
    3.2256    1.7753    0.5601 F   0  0  0  0  0  0  0  0  0  0  0  0
    4.6086    0.5929   -0.7526 F   0  0  0  0  0  0  0  0  0  0  0  0
    1.2932    0.0112    0.2557 C   0  0  0  0  0  0  0  0  0  0  0  0
  1  2  2  0
  2  3  1  0
  2  4  1  0
  4  5  2  0
  5  6  1  0
  6  7  2  0
  7  8  1  0
  8  9  2  0
  9 10  1  0
 10 11  1  0
 11 12  2  0
 12 13  1  0
 13 14  2  0
 14 15  1  0
 15 16  1  0
 16 17  1  0
 16 18  1  0
 16 19  1  0
 15 20  2  0
  9  4  1  0
 20 11  1  0
M  END
>  <zinc_id>  (1) 
ZINC000000125031

>  <smiles>  (1) 
O=C(O)c1cccnc1Nc1cccc(C(F)(F)F)c1

$$$$
