
     RDKit          3D

 21 23  0  0  0  0  0  0  0  0999 V2000
    5.2359    1.5722   -0.8352 C   0  0  0  0  0  0  0  0  0  0  0  0
    4.2975    0.4776   -0.4328 C   0  0  0  0  0  0  0  0  0  0  0  0
    3.8243   -0.4160   -1.3859 C   0  0  0  0  0  0  0  0  0  0  0  0
    2.5144   -0.8778   -1.3454 C   0  0  0  0  0  0  0  0  0  0  0  0
    1.6406   -0.4263   -0.3626 C   0  0  0  0  0  0  0  0  0  0  0  0
    0.2165   -0.2296   -0.6104 C   0  0  0  0  0  0  0  0  0  0  0  0
   -0.4439    0.8739   -1.0092 N   0  0  0  0  0  0  0  0  0  0  0  0
   -1.6150    0.9643   -0.3840 N   0  0  0  0  0  0  0  0  0  0  0  0
   -2.4130    2.1591   -0.1255 C   0  0  0  0  0  0  0  0  0  0  0  0
   -1.8896    3.2355   -1.0407 C   0  0  0  0  0  0  0  0  0  0  0  0
   -3.8721    1.8693   -0.3398 C   0  0  0  0  0  0  0  0  0  0  0  0
   -2.2248    2.6457    1.3064 C   0  0  0  0  0  0  0  0  0  0  0  0
   -1.9329   -0.2813    0.0230 C   0  0  0  0  0  0  0  0  0  0  0  0
   -3.0472   -0.8659    0.4941 N   0  0  0  0  0  0  0  0  0  0  0  0
   -3.0730   -2.2015    0.6122 C   0  0  0  0  0  0  0  0  0  0  0  0
   -1.9525   -2.9519    0.6763 N   0  0  0  0  0  0  0  0  0  0  0  0
   -0.7820   -2.2805    0.5516 C   0  0  0  0  0  0  0  0  0  0  0  0
    0.4584   -2.8285    0.9906 N   0  0  0  0  0  0  0  0  0  0  0  0
   -0.7624   -1.0277   -0.0316 C   0  0  0  0  0  0  0  0  0  0  0  0
    2.2610    0.0492    0.7875 C   0  0  0  0  0  0  0  0  0  0  0  0
    3.5597    0.5403    0.7434 C   0  0  0  0  0  0  0  0  0  0  0  0
  1  2  1  0
  2  3  2  0
  3  4  1  0
  4  5  2  0
  5  6  1  0
  6  7  2  0
  7  8  1  0
  8  9  1  0
  9 10  1  0
  9 11  1  0
  9 12  1  0
  8 13  1  0
 13 14  2  0
 14 15  1  0
 15 16  2  0
 16 17  1  0
 17 18  1  0
 17 19  2  0
  5 20  1  0
 20 21  2  0
 21  2  1  0
 19  6  1  0
 19 13  1  0
M  END
>  <zinc_id>  (1) 
ZINC000002047275

>  <smiles>  (1) 
Cc1ccc(-c2nn(C(C)(C)C)c3ncnc(N)c23)cc1

$$$$
