
     RDKit          3D

 19 21  0  0  0  0  0  0  0  0999 V2000
    1.4914    2.9841   -0.7255 C   0  0  0  0  0  0  0  0  0  0  0  0
    2.1946    1.7871   -0.3468 N   0  0  0  0  0  0  0  0  0  0  0  0
    3.3727    1.6526    0.3015 C   0  0  0  0  0  0  0  0  0  0  0  0
    3.8068    0.3936    0.0572 N   0  0  0  0  0  0  0  0  0  0  0  0
    2.7444   -0.3495   -0.3376 C   0  0  0  0  0  0  0  0  0  0  0  0
    2.5612   -1.7401   -0.0421 N   0  0  0  0  0  0  0  0  0  0  0  0
    1.9723   -2.1149    1.0039 O   0  0  0  0  0  0  0  0  0  0  0  0
    3.6246   -2.5466   -0.4140 O   0  0  0  0  0  0  0  0  0  0  0  0
    1.7335    0.5544   -0.6228 C   0  0  0  0  0  0  0  0  0  0  0  0
    0.2495    0.1004   -1.5010 S   0  0  0  0  0  0  0  0  0  0  0  0
   -1.1382    0.4189   -0.4041 C   0  0  0  0  0  0  0  0  0  0  0  0
   -1.3683    1.6697    0.0646 N   0  0  0  0  0  0  0  0  0  0  0  0
   -2.6494    2.0923    0.1996 C   0  0  0  0  0  0  0  0  0  0  0  0
   -3.5620    1.1564    0.5562 N   0  0  0  0  0  0  0  0  0  0  0  0
   -3.3965   -0.1141    0.1599 C   0  0  0  0  0  0  0  0  0  0  0  0
   -4.1014   -1.2625    0.2450 N   0  0  0  0  0  0  0  0  0  0  0  0
   -3.2705   -2.3273    0.1469 C   0  0  0  0  0  0  0  0  0  0  0  0
   -2.1036   -1.8539   -0.3375 N   0  0  0  0  0  0  0  0  0  0  0  0
   -2.1609   -0.5007   -0.3337 C   0  0  0  0  0  0  0  0  0  0  0  0
  1  2  1  0
  2  3  1  0
  3  4  2  0
  4  5  1  0
  5  6  1  0
  6  7  2  0
  6  8  1  0
  5  9  2  0
  9 10  1  0
 10 11  1  0
 11 12  2  0
 12 13  1  0
 13 14  2  0
 14 15  1  0
 15 16  1  0
 16 17  2  0
 17 18  1  0
 18 19  1  0
  9  2  1  0
 19 11  1  0
 19 15  2  0
M  CHG  2   6   1   8  -1
M  END
>  <zinc_id>  (1) 
ZINC000004258316

>  <smiles>  (1) 
Cn1cnc([N+](=O)[O-])c1Sc1ncnc2nc[nH]c12

$$$$
