REMARK SMILES O=C(O)c1cccnc1Nc1cccc(C(F)(F)F)c1
REMARK SMILES IDX 10 1 9 2 4 3 5 4 6 5 8 6 7 7 2 8 1 9 3 10 11 11 12 12 20 13
REMARK SMILES IDX 13 14 15 15 14 16 16 17 17 18 18 19 19 20
REMARK H PARENT
REMARK Flexibility Score: inf
ROOT
ATOM      1  N   UNL     1      -0.954  -0.369   0.925  1.00  0.00    -0.340 N 
ENDROOT
BRANCH   1   2
ATOM      2  C   UNL     1      -1.538   0.400  -0.130  1.00  0.00     0.144 A 
ATOM      3  C   UNL     1      -2.861   0.113  -0.429  1.00  0.00     0.102 A 
ATOM      4  C   UNL     1      -3.520   1.042  -1.219  1.00  0.00    -0.042 A 
ATOM      5  C   UNL     1      -2.867   2.181  -1.656  1.00  0.00    -0.043 A 
ATOM      6  N   UNL     1      -0.860   1.361  -0.792  1.00  0.00    -0.238 NA
ATOM      7  C   UNL     1      -1.571   2.432  -1.222  1.00  0.00     0.029 A 
BRANCH   3   8
ATOM      8  C   UNL     1      -3.668  -0.644   0.532  1.00  0.00     0.339 C 
ATOM      9  O   UNL     1      -3.302  -1.844   0.721  1.00  0.00    -0.246 OA
ATOM     10  O   UNL     1      -4.011   0.047   1.698  1.00  0.00    -0.478 OA
ENDBRANCH   3   8
ENDBRANCH   1   2
BRANCH   1  11
ATOM     11  C   UNL     1       0.335  -0.923   0.631  1.00  0.00     0.040 A 
ATOM     12  C   UNL     1       0.478  -2.176   0.048  1.00  0.00    -0.039 A 
ATOM     13  C   UNL     1       1.293   0.011   0.256  1.00  0.00    -0.026 A 
ATOM     14  C   UNL     1       1.693  -2.536  -0.520  1.00  0.00    -0.060 A 
ATOM     15  C   UNL     1       2.600  -0.395   0.043  1.00  0.00     0.058 A 
ATOM     16  C   UNL     1       2.783  -1.679  -0.454  1.00  0.00    -0.050 A 
BRANCH  15  17
ATOM     17  C   UNL     1       3.749   0.514   0.311  1.00  0.00     0.416 C 
ATOM     18  F   UNL     1       4.389   0.096   1.451  1.00  0.00    -0.166 F 
ATOM     19  F   UNL     1       3.226   1.775   0.560  1.00  0.00    -0.166 F 
ATOM     20  F   UNL     1       4.609   0.593  -0.753  1.00  0.00    -0.166 F 
ENDBRANCH  15  17
ENDBRANCH   1  11
TORSDOF 4

