
     RDKit          3D

 21 23  0  0  0  0  0  0  0  0999 V2000
   -0.1218    0.8208    0.0962 O   0  0  0  0  0  0  0  0  0  0  0  0
   -1.1180    0.0421    0.1919 C   0  0  0  0  0  0  0  0  0  0  0  0
   -0.8235   -1.3480    0.0248 N   0  0  0  0  0  0  0  0  0  0  0  0
    0.2615   -1.8483   -0.7696 C   0  0  0  0  0  0  0  0  0  0  0  0
    1.5943   -1.5714   -0.1956 C   0  0  0  0  0  0  0  0  0  0  0  0
    1.7072   -1.4906    1.1871 C   0  0  0  0  0  0  0  0  0  0  0  0
    2.8012   -0.8707    1.7504 C   0  0  0  0  0  0  0  0  0  0  0  0
    3.6190   -0.0355    1.0008 C   0  0  0  0  0  0  0  0  0  0  0  0
    3.6294   -0.2678   -0.3670 C   0  0  0  0  0  0  0  0  0  0  0  0
    2.6604   -1.0838   -0.9345 C   0  0  0  0  0  0  0  0  0  0  0  0
    4.5104    0.6850   -0.8738 O   0  0  0  0  0  0  0  0  0  0  0  0
    4.6328    1.7692    0.0130 C   0  0  0  0  0  0  0  0  0  0  0  0
    4.2885    1.1653    1.2508 O   0  0  0  0  0  0  0  0  0  0  0  0
   -2.4851    0.5593    0.0314 C   0  0  0  0  0  0  0  0  0  0  0  0
   -3.5031    0.0094    0.8019 C   0  0  0  0  0  0  0  0  0  0  0  0
   -3.1160   -0.4029    2.4595 Cl  0  0  0  0  0  0  0  0  0  0  0  0
   -4.7887   -0.1600    0.3040 C   0  0  0  0  0  0  0  0  0  0  0  0
   -5.0342    0.0239   -1.0517 C   0  0  0  0  0  0  0  0  0  0  0  0
   -4.1457    0.8690   -1.7048 C   0  0  0  0  0  0  0  0  0  0  0  0
   -2.8993    1.1450   -1.1588 C   0  0  0  0  0  0  0  0  0  0  0  0
   -1.6693    1.9899   -2.0881 Cl  0  0  0  0  0  0  0  0  0  0  0  0
  1  2  2  0
  2  3  1  0
  3  4  1  0
  4  5  1  0
  5  6  2  0
  6  7  1  0
  7  8  2  0
  8  9  1  0
  9 10  2  0
  9 11  1  0
 11 12  1  0
 12 13  1  0
  2 14  1  0
 14 15  2  0
 15 16  1  0
 15 17  1  0
 17 18  2  0
 18 19  1  0
 19 20  2  0
 20 21  1  0
 10  5  1  0
 20 14  1  0
 13  8  1  0
M  END
>  <zinc_id>  (1) 
ZINC000000355432

>  <smiles>  (1) 
O=C(NCc1ccc2c(c1)OCO2)c1c(Cl)cccc1Cl

$$$$
