REMARK SMILES Cc1ccc(NC2=CC(=O)c3sc(C)nc3C2=O)cc1
REMARK SMILES IDX 6 1 7 2 14 3 13 4 15 5 12 6 16 7 11 8 17 9 9 10 18 11 10 12
REMARK SMILES IDX 8 13 5 14 4 15 19 16 3 17 20 18 2 19 1 20
REMARK H PARENT
REMARK Flexibility Score: inf
ROOT
ATOM      1  N   UNL     1      -1.314  -0.713  -0.672  1.00  0.00    -0.352 N 
ENDROOT
BRANCH   1   2
ATOM      2  C   UNL     1       0.065  -0.799  -0.292  1.00  0.00     0.093 C 
ATOM      3  C   UNL     1       5.356   2.304   0.442  1.00  0.00    -0.012 C 
ATOM      4  C   UNL     1       4.343   1.251   0.117  1.00  0.00     0.091 A 
ATOM      5  N   UNL     1       3.147   1.413  -0.502  1.00  0.00    -0.237 NA
ATOM      6  S   UNL     1       4.516  -0.454  -0.035  1.00  0.00    -0.115 S 
ATOM      7  C   UNL     1       2.304   0.406  -0.185  1.00  0.00     0.135 A 
ATOM      8  C   UNL     1       2.894  -0.822  -0.472  1.00  0.00     0.106 A 
ATOM      9  C   UNL     1       0.834   0.437  -0.199  1.00  0.00     0.229 C 
ATOM     10  C   UNL     1       2.087  -2.029  -0.701  1.00  0.00     0.200 C 
ATOM     11  O   UNL     1       0.222   1.530  -0.403  1.00  0.00    -0.285 OA
ATOM     12  O   UNL     1       2.728  -3.069  -0.948  1.00  0.00    -0.288 OA
ATOM     13  C   UNL     1       0.627  -1.978  -0.569  1.00  0.00     0.015 C 
ENDBRANCH   1   2
BRANCH   1  14
ATOM     14  C   UNL     1      -2.359  -0.419   0.244  1.00  0.00     0.038 A 
ATOM     15  C   UNL     1      -2.502   0.823   0.852  1.00  0.00    -0.038 A 
ATOM     16  C   UNL     1      -3.524  -1.181   0.250  1.00  0.00    -0.038 A 
ATOM     17  C   UNL     1      -3.720   1.489   0.889  1.00  0.00    -0.057 A 
ATOM     18  C   UNL     1      -4.771  -0.573   0.352  1.00  0.00    -0.057 A 
ATOM     19  C   UNL     1      -4.883   0.789   0.600  1.00  0.00    -0.051 A 
ATOM     20  C   UNL     1      -6.050   1.596   0.174  1.00  0.00    -0.040 C 
ENDBRANCH   1  14
TORSDOF 2

