
     RDKit          3D

 29 31  0  0  0  0  0  0  0  0999 V2000
   -3.2891    1.4252   -0.8290 O   0  0  0  0  0  0  0  0  0  0  0  0
   -3.0668    0.5638    0.0755 C   0  0  0  0  0  0  0  0  0  0  0  0
   -4.0713    0.5327    1.1463 C   0  0  0  0  0  0  0  0  0  0  0  0
   -5.0131   -0.3720    1.2359 C   0  0  0  0  0  0  0  0  0  0  0  0
   -6.4184   -0.0817    1.4961 C   0  0  0  0  0  0  0  0  0  0  0  0
   -7.3331   -1.1172    1.3459 C   0  0  0  0  0  0  0  0  0  0  0  0
   -8.5806   -0.9165    0.7667 C   0  0  0  0  0  0  0  0  0  0  0  0
   -8.9604    0.4012    0.5554 C   0  0  0  0  0  0  0  0  0  0  0  0
   -8.2409    1.3997    1.1086 N   0  0  0  0  0  0  0  0  0  0  0  0
   -6.9541    1.1957    1.3984 C   0  0  0  0  0  0  0  0  0  0  0  0
   -2.5635   -0.6891   -0.4026 N   0  0  0  0  0  0  0  0  0  0  0  0
   -1.5249   -0.7292   -1.3958 C   0  0  0  0  0  0  0  0  0  0  0  0
   -1.2004    0.6111   -1.9894 C   0  0  0  0  0  0  0  0  0  0  0  0
   -0.2222    1.4109   -1.1780 C   0  0  0  0  0  0  0  0  0  0  0  0
    1.0237    0.6580   -0.8171 C   0  0  0  0  0  0  0  0  0  0  0  0
    1.2175   -0.6034   -1.6108 C   0  0  0  0  0  0  0  0  0  0  0  0
    2.3271   -0.4668   -2.6468 C   0  0  0  0  0  0  0  0  0  0  0  0
    3.6952   -0.6488   -2.0014 C   0  0  0  0  0  0  0  0  0  0  0  0
    3.5992   -0.2020   -0.6143 N   0  0  0  0  0  0  0  0  0  0  0  0
    4.4682    0.7997   -0.1043 C   0  0  0  0  0  0  0  0  0  0  0  0
    4.4204    1.9648   -0.6028 O   0  0  0  0  0  0  0  0  0  0  0  0
    5.7742    0.3669    0.3948 C   0  0  0  0  0  0  0  0  0  0  0  0
    5.9387    0.0184    1.7208 C   0  0  0  0  0  0  0  0  0  0  0  0
    7.2224    0.0896    2.2406 C   0  0  0  0  0  0  0  0  0  0  0  0
    8.2952    0.4713    1.4449 C   0  0  0  0  0  0  0  0  0  0  0  0
    8.1532    0.2303    0.0865 C   0  0  0  0  0  0  0  0  0  0  0  0
    6.8731    0.2223   -0.4424 C   0  0  0  0  0  0  0  0  0  0  0  0
    2.7352   -0.9874    0.2502 C   0  0  0  0  0  0  0  0  0  0  0  0
    1.6954   -1.6689   -0.6315 C   0  0  0  0  0  0  0  0  0  0  0  0
  1  2  2  0
  2  3  1  0
  3  4  2  0
  4  5  1  0
  5  6  2  0
  6  7  1  0
  7  8  2  0
  8  9  1  0
  9 10  2  0
  2 11  1  0
 11 12  1  0
 12 13  1  0
 13 14  1  0
 14 15  1  0
 15 16  1  0
 16 17  1  0
 17 18  1  0
 18 19  1  0
 19 20  1  0
 20 21  2  0
 20 22  1  0
 22 23  2  0
 23 24  1  0
 24 25  2  0
 25 26  1  0
 26 27  2  0
 19 28  1  0
 28 29  1  0
 10  5  1  0
 29 16  1  0
 27 22  1  0
M  END
>  <zinc_id>  (1) 
ZINC000003828115

>  <smiles>  (1) 
O=C(/C=C/c1cccnc1)NCCCCC1CCN(C(=O)c2ccccc2)CC1

$$$$
