REMARK SMILES NS(=O)(=O)c1ccc(C(=O)O)cc1
REMARK SMILES IDX 5 1 6 2 7 3 8 4 12 5 13 6 2 7 1 8 3 9 4 10 9 11 10 12 11 13
REMARK H PARENT
REMARK Flexibility Score: inf
ROOT
ATOM      1  C   UNL     1      -1.065  -0.421  -0.374  1.00  0.00     0.082 A 
ATOM      2  C   UNL     1      -0.373   0.180  -1.419  1.00  0.00    -0.041 A 
ATOM      3  C   UNL     1       1.014   0.232  -1.375  1.00  0.00    -0.046 A 
ATOM      4  C   UNL     1       1.749  -0.379  -0.369  1.00  0.00     0.060 A 
ATOM      5  C   UNL     1       1.051  -1.313   0.388  1.00  0.00    -0.046 A 
ATOM      6  C   UNL     1      -0.336  -1.382   0.316  1.00  0.00    -0.041 A 
ENDROOT
BRANCH   1   7
ATOM      7  S   UNL     1      -2.586   0.188   0.223  1.00  0.00     0.238 S 
ATOM      8  N   UNL     1      -2.435   0.830   1.831  1.00  0.00    -0.225 NA
ATOM      9  O   UNL     1      -3.634  -0.887   0.305  1.00  0.00    -0.207 OA
ATOM     10  O   UNL     1      -3.070   1.250  -0.738  1.00  0.00    -0.207 OA
ENDBRANCH   1   7
BRANCH   4  11
ATOM     11  C   UNL     1       2.960   0.244   0.177  1.00  0.00     0.335 C 
ATOM     12  O   UNL     1       3.347  -0.024   1.355  1.00  0.00    -0.246 OA
ATOM     13  O   UNL     1       3.378   1.483  -0.320  1.00  0.00    -0.478 OA
ENDBRANCH   4  11
TORSDOF 2

