
     RDKit          3D

 35 37  0  0  0  0  0  0  0  0999 V2000
    2.7701    1.3301    1.2280 C   0  0  0  0  0  0  0  0  0  0  0  0
    2.6622    1.2745    0.2873 C   0  0  0  0  0  0  0  0  0  0  0  0
    3.7449    1.1188   -0.4820 C   0  0  0  0  0  0  0  0  0  0  0  0
    4.9634    0.4794    0.0730 C   0  0  0  0  0  0  0  0  0  0  0  0
    5.0577    0.1281    1.3981 C   0  0  0  0  0  0  0  0  0  0  0  0
    6.2876   -1.0661    1.4008 S   0  0  0  0  0  0  0  0  0  0  0  0
    6.4972   -1.1372   -0.2972 C   0  0  0  0  0  0  0  0  0  0  0  0
    7.4626   -1.9323   -1.1227 C   0  0  0  0  0  0  0  0  0  0  0  0
    5.6838   -0.2348   -0.7518 N   0  0  0  0  0  0  0  0  0  0  0  0
    1.3675    0.8004   -0.5537 C   0  0  2  0  0  0  0  0  0  0  0  0
    0.3396    1.6089    0.4449 C   0  0  0  0  0  0  0  0  0  0  0  0
    0.5169    2.9332   -0.5708 C   0  0  2  0  0  0  0  0  0  0  0  0
    0.9605    3.8838    0.6366 O   0  0  0  0  0  0  0  0  0  0  0  0
   -0.5649    3.8799    0.1696 C   0  0  1  0  0  0  0  0  0  0  0  0
   -0.8533    5.1379   -0.5405 C   0  0  0  0  0  0  0  0  0  0  0  0
   -1.4029    3.1943    1.1309 C   0  0  0  0  0  0  0  0  0  0  0  0
   -2.7345    2.9622    0.4650 C   0  0  0  0  0  0  0  0  0  0  0  0
   -3.4556    1.8625    1.1559 C   0  0  0  0  0  0  0  0  0  0  0  0
   -3.5567    0.7563   -0.0220 C   0  0  2  0  0  0  0  0  0  0  0  0
   -4.4972    1.7222   -0.9286 C   0  0  0  0  0  0  0  0  0  0  0  0
   -4.9196   -0.0290    0.6112 C   0  0  2  0  0  0  0  0  0  0  0  0
   -4.4181   -0.1466    2.0219 O   0  0  0  0  0  0  0  0  0  0  0  0
   -4.4807   -1.6088    0.1546 C   0  0  1  0  0  0  0  0  0  0  0  0
   -4.1991   -1.1790   -1.3896 C   0  0  0  0  0  0  0  0  0  0  0  0
   -2.9138   -1.6008    0.5014 C   0  0  0  0  0  0  0  0  0  0  0  0
   -2.6567   -1.4685    1.7066 O   0  0  0  0  0  0  0  0  0  0  0  0
   -2.5229   -2.9268    0.0418 C   0  0  0  0  0  0  0  0  0  0  0  0
   -3.3417   -3.6358   -0.9668 C   0  0  0  0  0  0  0  0  0  0  0  0
   -2.6083   -3.9607    1.1774 C   0  0  0  0  0  0  0  0  0  0  0  0
   -0.9540   -3.0148   -0.4074 C   0  0  1  0  0  0  0  0  0  0  0  0
   -1.2212   -3.1553   -1.9036 O   0  0  0  0  0  0  0  0  0  0  0  0
   -0.6521   -1.4125   -0.6761 C   0  0  0  0  0  0  0  0  0  0  0  0
    0.8524   -1.5290   -0.5779 C   0  0  0  0  0  0  0  0  0  0  0  0
    1.5041   -2.5124   -0.9982 O   0  0  0  0  0  0  0  0  0  0  0  0
    1.2831   -0.5220    0.2899 N   0  0  0  0  0  0  0  0  0  0  0  0
  1  2  1  0
  2  3  2  0
  3  4  1  0
  4  5  2  0
  5  6  1  0
  6  7  1  0
  7  8  1  0
  7  9  2  0
 10  2  1  1
 10 11  1  0
 12 11  1  1
 12 13  1  0
 13 14  1  0
 14 15  1  6
 14 16  1  0
 16 17  1  0
 17 18  1  0
 18 19  1  0
 19 20  1  6
 19 21  1  0
 21 22  1  1
 21 23  1  0
 23 24  1  6
 23 25  1  0
 25 26  2  0
 25 27  1  0
 27 28  1  0
 27 29  1  0
 27 30  1  0
 30 31  1  6
 30 32  1  0
 32 33  1  0
 33 34  2  0
 33 35  1  0
  9  4  1  0
 35 10  1  0
 14 12  1  0
M  END
>  <zinc_id>  (1) 
ZINC000003993846

>  <smiles>  (1) 
C/C(=C\c1csc(C)n1)[C@@H]1C[C@@H]2O[C@]2(C)CCC[C@H](C)[C@H](O)[C@@H](C)C(=O)C(C)(C)[C@@H](O)CC(=O)N1

$$$$
