
     RDKit          3D

  9  9  0  0  0  0  0  0  0  0999 V2000
   -2.5787   -0.6558   -0.0318 O   0  0  0  0  0  0  0  0  0  0  0  0
   -1.7155    0.1680    0.3519 C   0  0  0  0  0  0  0  0  0  0  0  0
   -2.1041    1.5098    0.2482 O   0  0  0  0  0  0  0  0  0  0  0  0
   -0.3139   -0.1108   -0.4652 C   0  0  2  0  0  0  0  0  0  0  0  0
    0.0337   -1.4307    0.5063 C   0  0  0  0  0  0  0  0  0  0  0  0
    1.5419   -1.2778    0.3566 C   0  0  0  0  0  0  0  0  0  0  0  0
    1.7606    0.1769    0.4992 C   0  0  0  0  0  0  0  0  0  0  0  0
    2.8737    0.7586    0.6206 O   0  0  0  0  0  0  0  0  0  0  0  0
    0.5023    0.8617    0.5158 N   0  0  0  0  0  0  0  0  0  0  0  0
  1  2  2  0
  2  3  1  0
  4  2  1  1
  4  5  1  0
  5  6  1  0
  6  7  1  0
  7  8  2  0
  7  9  1  0
  9  4  1  0
M  END
>  <zinc_id>  (1) 
ZINC000003598263

>  <smiles>  (1) 
O=C1CC[C@@H](C(=O)O)N1

$$$$
