REMARK SMILES CO[C@H]1/C=C/O[C@@]2(C)Oc3c(C)c(O)c4c(O)c(cc(O)c4c3C2=O)NC(=O)/C(C)=C\C=C\[C@H](C)[C@H](O)[C@@H](C)[C@@H](O)[C@@H](C)[C@H](OC(C)=O)[C@@H]1C
REMARK SMILES IDX 36 1 37 2 38 3 39 4 40 5 41 6 42 7 43 8 44 9 49 10 50 11
REMARK SMILES IDX 3 12 2 14 1 15 45 16 46 17 47 18 48 19 34 20 35 21 33 22
REMARK SMILES IDX 32 23 31 24 29 25 30 26 27 27 26 28 28 29 18 30 19 31 16 32
REMARK SMILES IDX 20 33 17 34 15 35 22 36 21 37 13 38 23 39 14 40 11 41 10 42
REMARK SMILES IDX 24 43 12 44 9 45 7 46 25 47 8 48 6 49 5 50 4 51
REMARK H PARENT
REMARK Flexibility Score: 50.00
ROOT
ATOM      1  C   UNL     1      -3.190   2.773  -0.514  1.00  0.00     0.065 C 
ATOM      2  O   UNL     1      -4.125   3.598  -1.392  1.00  0.00    -0.392 OA
ENDROOT
BRANCH   1   3
ATOM      3  C   UNL     1      -4.399   1.715   0.095  1.00  0.00     0.009 C 
ATOM      4  C   UNL     1      -5.373   1.692  -1.190  1.00  0.00    -0.058 C 
BRANCH   3   5
ATOM      5  C   UNL     1      -3.629   0.289  -0.487  1.00  0.00     0.065 C 
ATOM      6  O   UNL     1      -2.300   0.623   0.191  1.00  0.00    -0.392 OA
BRANCH   5   7
ATOM      7  C   UNL     1      -4.111  -0.626   0.884  1.00  0.00     0.020 C 
ATOM      8  C   UNL     1      -5.673  -0.340   0.642  1.00  0.00    -0.056 C 
BRANCH   7   9
ATOM      9  C   UNL     1      -4.202  -2.104   0.020  1.00  0.00     0.112 C 
BRANCH   9  10
ATOM     10  C   UNL     1      -2.597  -1.974  -0.559  1.00  0.00     0.024 C 
ATOM     11  C   UNL     1      -3.099  -1.860  -2.075  1.00  0.00    -0.056 C 
BRANCH  10  12
ATOM     12  C   UNL     1      -2.386  -3.691  -0.634  1.00  0.00     0.084 CG0
ATOM     13  G   UNL     1      -1.091  -3.624   0.391  1.00  0.00     0.000 G0
BRANCH  12  14
ATOM     14  O   UNL     1      -1.450  -3.588  -1.864  1.00  0.00    -0.377 OA
ATOM     15  C   UNL     1      -1.317  -3.610  -2.016  1.00  0.00     0.036 C 
ENDBRANCH  12  14
ENDBRANCH  10  12
ENDBRANCH   9  10
BRANCH   9  16
ATOM     16  O   UNL     1      -3.727  -2.888   1.271  1.00  0.00    -0.462 OA
BRANCH  16  17
ATOM     17  C   UNL     1      -4.660  -3.832   1.717  1.00  0.00     0.302 C 
ATOM     18  C   UNL     1      -4.286  -5.265   1.919  1.00  0.00     0.034 C 
ATOM     19  O   UNL     1      -5.837  -3.409   1.830  1.00  0.00    -0.253 OA
ENDBRANCH  16  17
ENDBRANCH   9  16
ENDBRANCH   7   9
ENDBRANCH   5   7
ENDBRANCH   3   5
ENDBRANCH   1   3
BRANCH   1  20
ATOM     20  C   UNL     1      -3.470   3.882   0.798  1.00  0.00     0.001 C 
ATOM     21  C   UNL     1      -2.377   3.162   1.794  1.00  0.00    -0.057 C 
BRANCH  20  22
ATOM     22  C   UNL     1      -2.390   4.918   0.208  1.00  0.00    -0.079 C 
ATOM     23  C   UNL     1      -1.203   4.473  -0.097  1.00  0.00    -0.065 C 
BRANCH  23  24
ATOM     24  C   UNL     1      -0.187   4.545   0.955  1.00  0.00    -0.054 C 
ATOM     25  C   UNL     1       0.915   5.295   0.895  1.00  0.00     0.014 C 
ATOM     26  C   UNL     1       1.061   6.513   1.776  1.00  0.00    -0.034 C 
BRANCH  25  27
ATOM     27  C   UNL     1       2.098   4.777   0.164  1.00  0.00     0.251 C 
ATOM     28  N   UNL     1       2.712   3.576   0.568  1.00  0.00    -0.319 N 
ATOM     29  O   UNL     1       2.707   5.742  -0.409  1.00  0.00    -0.269 OA
BRANCH  28  30
ATOM     30  C   UNL     1       3.155   2.493  -0.221  1.00  0.00     0.088 A 
ATOM     31  C   UNL     1       2.111   1.874  -0.917  1.00  0.00     0.008 A 
ATOM     32  C   UNL     1       4.346   1.809  -0.083  1.00  0.00     0.150 A 
ATOM     33  C   UNL     1       2.282   0.660  -1.583  1.00  0.00     0.126 A 
ATOM     34  O   UNL     1       5.613   2.329  -0.406  1.00  0.00    -0.505 OA
ATOM     35  C   UNL     1       4.277   0.433  -0.300  1.00  0.00     0.072 A 
ATOM     36  C   UNL     1       3.234  -0.175  -1.009  1.00  0.00     0.046 A 
ATOM     37  O   UNL     1       2.017   0.774  -2.963  1.00  0.00    -0.507 OA
ATOM     38  C   UNL     1       5.265  -0.303   0.342  1.00  0.00     0.134 A 
ATOM     39  C   UNL     1       3.064  -1.496  -0.661  1.00  0.00     0.080 A 
ATOM     40  O   UNL     1       6.302   0.315   1.051  1.00  0.00    -0.507 OA
ATOM     41  C   UNL     1       5.018  -1.613   0.738  1.00  0.00     0.035 A 
ATOM     42  C   UNL     1       3.747  -2.080   0.411  1.00  0.00     0.143 A 
ATOM     43  C   UNL     1       2.091  -2.475  -1.046  1.00  0.00     0.251 C 
ATOM     44  C   UNL     1       6.009  -2.426   1.473  1.00  0.00    -0.032 C 
ATOM     45  O   UNL     1       3.193  -3.344   0.664  1.00  0.00    -0.444 OA
ATOM     46  C   UNL     1       1.837  -3.197   0.248  1.00  0.00     0.312 C 
ATOM     47  O   UNL     1       1.863  -3.100  -2.136  1.00  0.00    -0.285 OA
ATOM     48  C   UNL     1       1.200  -2.284   1.276  1.00  0.00     0.021 C 
BRANCH  46  49
ATOM     49  O   UNL     1       1.163  -4.402   0.086  1.00  0.00    -0.454 OA
BRANCH  49  50
ATOM     50  C   UNL     1      -0.199  -4.551   0.157  1.00  0.00     0.087 C 
ATOM     51  C   UNL     1      -1.091  -3.624   0.391  1.00  0.00    -0.021 CG0
ATOM     52  G   UNL     1      -2.386  -3.691  -0.634  1.00  0.00     0.000 G0
ENDBRANCH  49  50
ENDBRANCH  46  49
ENDBRANCH  28  30
ENDBRANCH  25  27
ENDBRANCH  23  24
ENDBRANCH  20  22
ENDBRANCH   1  20
TORSDOF 3

