REMARK SMILES CC(=O)Oc1cccc2c1C(=O)c1c(OC(C)=O)cc(C(=O)O)cc1C2=O
REMARK SMILES IDX 5 1 6 2 7 3 8 4 9 5 10 6 11 7 12 8 13 9 14 10 19 11 20 12
REMARK SMILES IDX 24 13 25 14 26 15 27 16 4 17 2 18 1 19 3 20 15 21 16 22
REMARK SMILES IDX 17 23 18 24 21 25 22 26 23 27
REMARK H PARENT
REMARK Flexibility Score: inf
ROOT
ATOM      1  C   UNL     1       2.979   0.117  -1.118  1.00  0.00     0.142 A 
ATOM      2  C   UNL     1       3.899   1.109  -1.419  1.00  0.00    -0.018 A 
ATOM      3  C   UNL     1       3.408   2.289  -1.935  1.00  0.00    -0.058 A 
ATOM      4  C   UNL     1       2.035   2.455  -2.065  1.00  0.00    -0.050 A 
ATOM      5  C   UNL     1       1.144   1.670  -1.346  1.00  0.00     0.037 A 
ATOM      6  C   UNL     1       1.650   0.446  -0.927  1.00  0.00     0.077 A 
ATOM      7  C   UNL     1       0.778  -0.473  -0.189  1.00  0.00     0.202 C 
ATOM      8  O   UNL     1       1.020  -1.716  -0.186  1.00  0.00    -0.288 OA
ATOM      9  C   UNL     1      -0.601  -0.067   0.044  1.00  0.00     0.077 A 
ATOM     10  C   UNL     1      -1.559  -1.036   0.316  1.00  0.00     0.143 A 
ATOM     11  C   UNL     1      -2.737  -0.584   0.873  1.00  0.00    -0.004 A 
ATOM     12  C   UNL     1      -2.898   0.756   1.205  1.00  0.00     0.064 A 
ATOM     13  C   UNL     1      -2.043   1.705   0.656  1.00  0.00    -0.035 A 
ATOM     14  C   UNL     1      -0.900   1.283   0.008  1.00  0.00     0.038 A 
ATOM     15  C   UNL     1       0.012   2.253  -0.613  1.00  0.00     0.194 C 
ATOM     16  O   UNL     1      -0.500   3.296  -1.108  1.00  0.00    -0.289 OA
ENDROOT
BRANCH   1  17
ATOM     17  O   UNL     1       3.431  -1.065  -0.523  1.00  0.00    -0.426 OA
BRANCH  17  18
ATOM     18  C   UNL     1       4.152  -1.038   0.662  1.00  0.00     0.308 C 
ATOM     19  C   UNL     1       4.233  -2.220   1.542  1.00  0.00     0.034 C 
ATOM     20  O   UNL     1       4.613   0.048   1.094  1.00  0.00    -0.252 OA
ENDBRANCH  17  18
ENDBRANCH   1  17
BRANCH  10  21
ATOM     21  O   UNL     1      -1.458  -2.252  -0.362  1.00  0.00    -0.426 OA
BRANCH  21  22
ATOM     22  C   UNL     1      -2.184  -3.324   0.160  1.00  0.00     0.308 C 
ATOM     23  C   UNL     1      -2.592  -4.427  -0.766  1.00  0.00     0.034 C 
ATOM     24  O   UNL     1      -1.978  -3.562   1.387  1.00  0.00    -0.252 OA
ENDBRANCH  21  22
ENDBRANCH  10  21
BRANCH  12  25
ATOM     25  C   UNL     1      -4.255   1.161   1.589  1.00  0.00     0.335 C 
ATOM     26  O   UNL     1      -5.213   0.754   0.864  1.00  0.00    -0.246 OA
ATOM     27  O   UNL     1      -4.438   2.424   2.158  1.00  0.00    -0.478 OA
ENDBRANCH  12  25
TORSDOF 5

