REMARK SMILES C=C(C)[C@@H]1[C@H]2OC(=O)[C@H]1[C@]1(O)C[C@H]3O[C@]34C(=O)O[C@H]2[C@@]41C
REMARK SMILES IDX 4 1 5 2 6 3 7 4 8 5 9 6 10 7 11 8 12 9 13 10 14 11 15 12
REMARK SMILES IDX 16 13 17 14 18 15 19 16 20 17 21 18 2 19 1 20 3 21
REMARK H PARENT
REMARK Flexibility Score: inf
ROOT
ATOM      1  C   UNL     1      -1.800  -0.382   0.000  1.00  0.00     0.036 C 
ATOM      2  C   UNL     1      -0.923  -1.598   0.000  1.00  0.00     0.147 C 
ATOM      3  O   UNL     1      -2.406  -1.112   0.000  1.00  0.00    -0.457 OA
ATOM      4  C   UNL     1      -2.558   0.381   0.000  1.00  0.00     0.313 C 
ATOM      5  O   UNL     1      -3.753   1.287   0.000  1.00  0.00    -0.252 OA
ATOM      6  C   UNL     1      -1.186   0.986   0.000  1.00  0.00     0.097 C 
ATOM      7  C   UNL     1       0.306   1.139   0.000  1.00  0.00     0.094 C 
ATOM      8  O   UNL     1      -0.440   2.440   0.000  1.00  0.00    -0.388 OA
ATOM      9  C   UNL     1       1.192   2.349   0.000  1.00  0.00     0.008 C 
ATOM     10  C   UNL     1       2.617   1.881   0.000  1.00  0.00     0.103 C 
ATOM     11  O   UNL     1       3.913   1.127   0.000  1.00  0.00    -0.353 OA
ATOM     12  C   UNL     1       2.612   0.381   0.000  1.00  0.00     0.203 C 
ATOM     13  C   UNL     1       3.218  -0.991   0.000  1.00  0.00     0.342 C 
ATOM     14  O   UNL     1       4.684  -1.307   0.000  1.00  0.00    -0.249 OA
ATOM     15  O   UNL     1       2.100  -1.991   0.000  1.00  0.00    -0.455 OA
ATOM     16  C   UNL     1       0.570  -1.446   0.000  1.00  0.00     0.151 C 
ATOM     17  C   UNL     1       1.184  -0.078   0.000  1.00  0.00     0.080 C 
ATOM     18  C   UNL     1       2.184  -1.196   0.000  1.00  0.00    -0.050 C 
ENDROOT
BRANCH   1  19
ATOM     19  C   UNL     1      -3.293  -0.534   0.000  1.00  0.00    -0.073 C 
ATOM     20  C   UNL     1      -4.312   0.566   0.000  1.00  0.00    -0.100 C 
ATOM     21  C   UNL     1      -3.907  -1.903   0.000  1.00  0.00    -0.044 C 
ENDBRANCH   1  19
TORSDOF 1

