REMARK SMILES CCCOc1ccccc1-c1nc(O)c2n[nH]nc2n1
REMARK SMILES IDX 4 1 3 2 2 3 1 4 5 5 6 6 10 7 7 8 9 9 8 10 11 11 20 12 12 13
REMARK SMILES IDX 19 14 13 15 18 16 15 17 14 18 17 19 16 20
REMARK H PARENT
REMARK Flexibility Score: inf
ROOT
ATOM      1  O   UNL     1       2.316   0.777   0.067  1.00  0.00    -0.493 OA
ENDROOT
BRANCH   1   2
ATOM      2  C   UNL     1       3.537   1.319  -0.363  1.00  0.00     0.088 C 
BRANCH   2   3
ATOM      3  C   UNL     1       4.398   1.611   0.856  1.00  0.00    -0.022 C 
ATOM      4  C   UNL     1       4.037   3.011   1.329  1.00  0.00    -0.062 C 
ENDBRANCH   2   3
ENDBRANCH   1   2
BRANCH   1   5
ATOM      5  C   UNL     1       2.012  -0.581   0.037  1.00  0.00     0.130 A 
ATOM      6  C   UNL     1       3.007  -1.498  -0.272  1.00  0.00    -0.019 A 
ATOM      7  C   UNL     1       0.728  -0.958  -0.286  1.00  0.00     0.061 A 
ATOM      8  C   UNL     1       2.730  -2.705  -0.863  1.00  0.00    -0.059 A 
ATOM      9  C   UNL     1       0.442  -2.226  -0.775  1.00  0.00    -0.047 A 
ATOM     10  C   UNL     1       1.453  -3.008  -1.282  1.00  0.00    -0.061 A 
BRANCH   7  11
ATOM     11  C   UNL     1      -0.351   0.016  -0.089  1.00  0.00     0.169 A 
ATOM     12  N   UNL     1      -0.963   0.186   1.108  1.00  0.00    -0.204 NA
ATOM     13  N   UNL     1      -0.913   0.695  -1.115  1.00  0.00    -0.191 NA
ATOM     14  C   UNL     1      -2.296   0.416   1.204  1.00  0.00     0.209 A 
ATOM     15  C   UNL     1      -2.247   0.934  -1.078  1.00  0.00     0.245 A 
ATOM     16  N   UNL     1      -3.251   0.080   2.105  1.00  0.00    -0.135 NA
ATOM     17  C   UNL     1      -3.017   0.633   0.035  1.00  0.00     0.193 A 
ATOM     18  O   UNL     1      -2.925   1.165  -2.279  1.00  0.00    -0.492 OA
ATOM     19  N   UNL     1      -4.419  -0.025   1.478  1.00  0.00    -0.195 N 
ATOM     20  N   UNL     1      -4.278   0.158   0.183  1.00  0.00    -0.149 NA
ENDBRANCH   7  11
ENDBRANCH   1   5
TORSDOF 4

