REMARK SMILES Cc1ccc(-n2sc(=O)n(Cc3ccc(F)cc3)c2=O)cc1
REMARK SMILES IDX 6 1 7 2 8 3 9 4 10 5 19 6 20 7 5 8 1 9 2 10 3 11 22 12 4 13
REMARK SMILES IDX 21 14 11 15 12 16 13 17 18 18 14 19 17 20 15 21 16 22
REMARK H PARENT
REMARK Flexibility Score: inf
ROOT
ATOM      1  N   UNL     1       1.573   0.080   0.240  1.00  0.00    -0.212 N 
ATOM      2  S   UNL     1       1.128   1.571  -0.440  1.00  0.00     0.012 S 
ATOM      3  C   UNL     1      -0.577   1.388  -0.301  1.00  0.00     0.327 A 
ATOM      4  O   UNL     1      -1.496   2.243  -0.490  1.00  0.00    -0.255 OA
ATOM      5  N   UNL     1      -0.626   0.298   0.507  1.00  0.00    -0.245 N 
ATOM      6  C   UNL     1       0.372  -0.552   0.245  1.00  0.00     0.346 A 
ATOM      7  O   UNL     1       0.203  -1.811   0.263  1.00  0.00    -0.246 OA
ENDROOT
BRANCH   1   8
ATOM      8  C   UNL     1       2.867  -0.483   0.494  1.00  0.00     0.062 A 
ATOM      9  C   UNL     1       6.921   0.617  -0.074  1.00  0.00    -0.040 C 
ATOM     10  C   UNL     1       5.647  -0.046   0.298  1.00  0.00    -0.051 A 
ATOM     11  C   UNL     1       4.958   0.303   1.452  1.00  0.00    -0.057 A 
ATOM     12  C   UNL     1       4.994  -0.939  -0.536  1.00  0.00    -0.057 A 
ATOM     13  C   UNL     1       3.590   0.079   1.536  1.00  0.00    -0.037 A 
ATOM     14  C   UNL     1       3.607  -0.911  -0.599  1.00  0.00    -0.037 A 
ENDBRANCH   1   8
BRANCH   5  15
ATOM     15  C   UNL     1      -1.851  -0.050   1.227  1.00  0.00     0.057 C 
BRANCH  15  16
ATOM     16  C   UNL     1      -3.016  -0.157   0.328  1.00  0.00    -0.028 A 
ATOM     17  C   UNL     1      -3.413  -1.382  -0.197  1.00  0.00    -0.054 A 
ATOM     18  C   UNL     1      -4.041   0.760   0.527  1.00  0.00    -0.054 A 
ATOM     19  C   UNL     1      -4.556  -1.437  -0.984  1.00  0.00    -0.026 A 
ATOM     20  C   UNL     1      -5.015   0.828  -0.451  1.00  0.00    -0.026 A 
ATOM     21  C   UNL     1      -5.157  -0.242  -1.310  1.00  0.00     0.123 A 
ATOM     22  F   UNL     1      -6.113  -0.156  -2.271  1.00  0.00    -0.207 F 
ENDBRANCH  15  16
ENDBRANCH   5  15
TORSDOF 3

