
     RDKit          3D

 20 22  0  0  0  0  0  0  0  0999 V2000
    5.5724    1.4829    1.7997 C   0  0  0  0  0  0  0  0  0  0  0  0
    4.4119    0.6212    1.4632 C   0  0  0  0  0  0  0  0  0  0  0  0
    3.1204    1.0203    1.7020 C   0  0  0  0  0  0  0  0  0  0  0  0
    2.0681    0.4508    0.9961 C   0  0  0  0  0  0  0  0  0  0  0  0
    2.2894   -0.3663   -0.1065 C   0  0  0  0  0  0  0  0  0  0  0  0
    1.2006   -0.2739   -1.4979 S   0  0  0  0  0  0  0  0  0  0  0  0
   -0.3474   -1.1412   -1.2174 C   0  0  0  0  0  0  0  0  0  0  0  0
   -0.4691   -2.4352   -1.7086 C   0  0  0  0  0  0  0  0  0  0  0  0
   -1.6271   -2.8927   -2.2447 N   0  0  0  0  0  0  0  0  0  0  0  0
   -2.7218   -2.0980   -2.1457 C   0  0  0  0  0  0  0  0  0  0  0  0
   -2.6936   -0.9188   -1.4073 C   0  0  0  0  0  0  0  0  0  0  0  0
   -3.8368    0.0180   -0.5310 S   0  0  0  0  0  0  0  0  0  0  0  0
   -2.7613    1.0798    0.2825 C   0  0  0  0  0  0  0  0  0  0  0  0
   -2.9770    1.9364    1.4513 C   0  0  0  0  0  0  0  0  0  0  0  0
   -3.9411    1.5324    2.4306 N   0  0  0  0  0  0  0  0  0  0  0  0
   -2.3188    2.9859    1.6031 O   0  0  0  0  0  0  0  0  0  0  0  0
   -1.6107    0.8392   -0.4361 C   0  0  0  0  0  0  0  0  0  0  0  0
   -1.5055   -0.4637   -0.8440 C   0  0  0  0  0  0  0  0  0  0  0  0
    3.5660   -0.9033   -0.2151 C   0  0  0  0  0  0  0  0  0  0  0  0
    4.5813   -0.4739    0.6258 C   0  0  0  0  0  0  0  0  0  0  0  0
  1  2  1  0
  2  3  2  0
  3  4  1  0
  4  5  2  0
  5  6  1  0
  6  7  1  0
  7  8  2  0
  8  9  1  0
  9 10  2  0
 10 11  1  0
 11 12  1  0
 12 13  1  0
 13 14  1  0
 14 15  1  0
 14 16  2  0
 13 17  2  0
 17 18  1  0
  5 19  1  0
 19 20  2  0
 20  2  1  0
 18  7  1  0
 18 11  2  0
M  END
>  <zinc_id>  (1) 
ZINC000000007724

>  <smiles>  (1) 
Cc1ccc(Sc2cncc3sc(C(N)=O)cc23)cc1

$$$$
