REMARK SMILES Cc1ccc(Nc2nccc(N(C)c3ccc4c(C)n(C)nc4c3)n2)cc1S(N)(=O)=O
REMARK SMILES IDX 11 1 10 2 9 3 8 4 7 5 25 6 12 7 13 8 14 9 19 10 18 11 17 12
REMARK SMILES IDX 20 13 16 14 23 15 22 16 21 17 15 18 24 19 6 20 5 21 4 22
REMARK SMILES IDX 26 23 3 24 27 25 2 26 1 27 28 28 29 29 30 30 31 31
REMARK H PARENT
REMARK Flexibility Score: inf
ROOT
ATOM      1  C   UNL     1      -0.772  -0.481  -0.343  1.00  0.00     0.138 A 
ATOM      2  C   UNL     1      -1.382   0.274  -1.335  1.00  0.00    -0.000 A 
ATOM      3  C   UNL     1      -0.852   1.466  -1.794  1.00  0.00     0.035 A 
ATOM      4  N   UNL     1       0.243   1.925  -1.168  1.00  0.00    -0.221 NA
ATOM      5  C   UNL     1       0.816   1.223  -0.165  1.00  0.00     0.229 A 
ATOM      6  N   UNL     1       0.418  -0.036   0.116  1.00  0.00    -0.195 NA
ENDROOT
BRANCH   1   7
ATOM      7  N   UNL     1      -1.539  -1.433   0.403  1.00  0.00    -0.329 N 
ATOM      8  C   UNL     1      -0.883  -2.186   1.442  1.00  0.00     0.013 C 
BRANCH   7   9
ATOM      9  C   UNL     1      -2.963  -1.282   0.435  1.00  0.00     0.044 A 
ATOM     10  C   UNL     1      -7.929   0.450   0.792  1.00  0.00    -0.022 C 
ATOM     11  C   UNL     1      -6.779   0.185  -0.107  1.00  0.00     0.043 A 
ATOM     12  C   UNL     1      -5.520  -0.239   0.299  1.00  0.00     0.023 A 
ATOM     13  N   UNL     1      -6.647   0.575  -1.398  1.00  0.00    -0.272 N 
ATOM     14  C   UNL     1      -4.839  -0.206   1.509  1.00  0.00    -0.049 A 
ATOM     15  C   UNL     1      -4.860  -0.543  -0.885  1.00  0.00     0.095 A 
ATOM     16  N   UNL     1      -5.478   0.159  -1.865  1.00  0.00    -0.173 NA
ATOM     17  C   UNL     1      -7.607   1.297  -2.203  1.00  0.00     0.030 C 
ATOM     18  C   UNL     1      -3.545  -0.709   1.559  1.00  0.00    -0.038 A 
ATOM     19  C   UNL     1      -3.635  -1.186  -0.776  1.00  0.00    -0.010 A 
ENDBRANCH   7   9
ENDBRANCH   1   7
BRANCH   5  20
ATOM     20  N   UNL     1       2.150   1.562   0.225  1.00  0.00    -0.324 N 
BRANCH  20  21
ATOM     21  C   UNL     1       3.157   0.548   0.283  1.00  0.00     0.042 A 
ATOM     22  C   UNL     1       3.087  -0.442  -0.686  1.00  0.00    -0.038 A 
ATOM     23  C   UNL     1       4.361   0.839   0.863  1.00  0.00    -0.018 A 
ATOM     24  C   UNL     1       4.111  -1.360  -0.757  1.00  0.00    -0.056 A 
ATOM     25  C   UNL     1       5.470   0.048   0.606  1.00  0.00     0.087 A 
ATOM     26  C   UNL     1       5.238  -1.197   0.037  1.00  0.00    -0.031 A 
ATOM     27  C   UNL     1       6.323  -2.195   0.111  1.00  0.00    -0.038 C 
BRANCH  25  28
ATOM     28  S   UNL     1       7.096   0.651   0.885  1.00  0.00     0.238 S 
ATOM     29  N   UNL     1       8.214  -0.555   0.364  1.00  0.00    -0.225 NA
ATOM     30  O   UNL     1       7.247   1.886   0.045  1.00  0.00    -0.207 OA
ATOM     31  O   UNL     1       7.299   0.961   2.336  1.00  0.00    -0.207 OA
ENDBRANCH  25  28
ENDBRANCH  20  21
ENDBRANCH   5  20
TORSDOF 5

