REMARK SMILES CCCCC1C(=O)N(c2ccccc2)N(c2ccccc2)C1=O
REMARK SMILES IDX 4 1 3 2 2 3 1 4 5 5 6 6 22 7 7 8 8 9 15 10 23 11 9 12 10 13
REMARK SMILES IDX 14 14 11 15 13 16 12 17 16 18 17 19 21 20 18 21 20 22 19 23
REMARK H PARENT
REMARK Flexibility Score: inf
ROOT
ATOM      1  C   UNL     1       2.753  -2.061   0.738  1.00  0.00    -0.032 C 
ENDROOT
BRANCH   1   2
ATOM      2  C   UNL     1       3.597  -1.358  -0.288  1.00  0.00    -0.052 C 
BRANCH   2   3
ATOM      3  C   UNL     1       4.921  -0.896   0.308  1.00  0.00    -0.056 C 
ATOM      4  C   UNL     1       5.809  -0.453  -0.848  1.00  0.00    -0.065 C 
ENDBRANCH   2   3
ENDBRANCH   1   2
BRANCH   1   5
ATOM      5  C   UNL     1       1.451  -1.382   1.022  1.00  0.00     0.121 C 
ATOM      6  C   UNL     1       0.363  -1.808   0.085  1.00  0.00     0.258 C 
ATOM      7  C   UNL     1       1.482   0.084   0.726  1.00  0.00     0.258 C 
ATOM      8  O   UNL     1       0.330  -2.778  -0.701  1.00  0.00    -0.272 OA
ATOM      9  N   UNL     1      -0.599  -0.749   0.174  1.00  0.00    -0.213 N 
ATOM     10  N   UNL     1       0.101   0.420   0.537  1.00  0.00    -0.213 N 
ATOM     11  O   UNL     1       2.329   0.923   1.128  1.00  0.00    -0.272 OA
BRANCH   9  12
ATOM     12  C   UNL     1      -2.003  -0.897  -0.070  1.00  0.00     0.067 A 
ATOM     13  C   UNL     1      -2.383  -0.845  -1.406  1.00  0.00    -0.036 A 
ATOM     14  C   UNL     1      -2.810  -1.685   0.741  1.00  0.00    -0.036 A 
ATOM     15  C   UNL     1      -3.654  -1.230  -1.802  1.00  0.00    -0.060 A 
ATOM     16  C   UNL     1      -4.126  -1.911   0.405  1.00  0.00    -0.060 A 
ATOM     17  C   UNL     1      -4.518  -1.824  -0.918  1.00  0.00    -0.062 A 
ENDBRANCH   9  12
BRANCH  10  18
ATOM     18  C   UNL     1      -0.444   1.741   0.464  1.00  0.00     0.067 A 
ATOM     19  C   UNL     1      -0.029   2.767   1.285  1.00  0.00    -0.036 A 
ATOM     20  C   UNL     1      -1.041   2.104  -0.735  1.00  0.00    -0.036 A 
ATOM     21  C   UNL     1      -0.113   4.085   0.853  1.00  0.00    -0.060 A 
ATOM     22  C   UNL     1      -1.031   3.392  -1.216  1.00  0.00    -0.060 A 
ATOM     23  C   UNL     1      -0.385   4.360  -0.482  1.00  0.00    -0.062 A 
ENDBRANCH  10  18
ENDBRANCH   1   5
TORSDOF 5

