
     RDKit          3D

 13 12  0  0  0  0  0  0  0  0999 V2000
    2.5311    1.9152   -0.2594 O   0  0  0  0  0  0  0  0  0  0  0  0
    1.9695    1.1780    0.6080 C   0  0  0  0  0  0  0  0  0  0  0  0
    2.6112    1.1899    1.8532 O   0  0  0  0  0  0  0  0  0  0  0  0
    1.5112   -0.1359    0.1379 C   0  0  0  0  0  0  0  0  0  0  0  0
    0.0813   -0.2042   -0.2817 C   0  0  0  0  0  0  0  0  0  0  0  0
   -0.2169    0.4976   -1.4386 O   0  0  0  0  0  0  0  0  0  0  0  0
   -0.8794    0.2194    0.7905 C   0  0  0  0  0  0  0  0  0  0  0  0
   -2.2231    0.5173    0.2343 C   0  0  0  0  0  0  0  0  0  0  0  0
   -3.0992    0.9605    1.0212 O   0  0  0  0  0  0  0  0  0  0  0  0
   -2.6223    0.0775   -1.0137 O   0  0  0  0  0  0  0  0  0  0  0  0
   -0.1503   -1.6708   -0.5059 C   0  0  0  0  0  0  0  0  0  0  0  0
    0.0459   -2.3801    0.5287 O   0  0  0  0  0  0  0  0  0  0  0  0
    0.4410   -2.1646   -1.6744 O   0  0  0  0  0  0  0  0  0  0  0  0
  1  2  2  0
  2  3  1  0
  2  4  1  0
  4  5  1  0
  5  6  1  0
  5  7  1  0
  7  8  1  0
  8  9  2  0
  8 10  1  0
  5 11  1  0
 11 12  2  0
 11 13  1  0
M  END
>  <zinc_id>  (1) 
ZINC000000895081

>  <smiles>  (1) 
O=C(O)CC(O)(CC(=O)O)C(=O)O

$$$$
