REMARK SMILES Nc1nc(N)c2nc(-c3ccccc3)c(N)nc2n1
REMARK SMILES IDX 1 1 2 2 3 3 4 4 5 5 6 6 7 7 8 8 15 9 16 10 17 11 18 12 19 13
REMARK SMILES IDX 9 14 10 15 14 16 11 17 13 18 12 19
REMARK H PARENT
REMARK Flexibility Score: inf
ROOT
ATOM      1  N   UNL     1      -4.673   1.109   1.501  1.00  0.00    -0.368 N 
ATOM      2  C   UNL     1      -3.720   0.441   0.665  1.00  0.00     0.224 A 
ATOM      3  N   UNL     1      -3.435   0.952  -0.553  1.00  0.00    -0.194 NA
ATOM      4  C   UNL     1      -2.208   0.858  -1.105  1.00  0.00     0.157 A 
ATOM      5  N   UNL     1      -1.963   1.178  -2.481  1.00  0.00    -0.382 N 
ATOM      6  C   UNL     1      -1.262   0.154  -0.371  1.00  0.00     0.151 A 
ATOM      7  N   UNL     1       0.022   0.213  -0.738  1.00  0.00    -0.237 NA
ATOM      8  C   UNL     1       0.886  -0.674  -0.187  1.00  0.00     0.113 A 
ATOM      9  C   UNL     1       0.364  -1.787   0.456  1.00  0.00     0.152 A 
ATOM     10  N   UNL     1       1.202  -2.937   0.506  1.00  0.00    -0.382 N 
ATOM     11  N   UNL     1      -0.885  -1.773   0.983  1.00  0.00    -0.207 NA
ATOM     12  C   UNL     1      -1.698  -0.766   0.576  1.00  0.00     0.187 A 
ATOM     13  N   UNL     1      -2.894  -0.523   1.139  1.00  0.00    -0.191 NA
ENDROOT
BRANCH   8  14
ATOM     14  C   UNL     1       2.309  -0.338  -0.040  1.00  0.00     0.004 A 
ATOM     15  C   UNL     1       2.706   0.350   1.093  1.00  0.00    -0.053 A 
ATOM     16  C   UNL     1       3.124  -0.183  -1.153  1.00  0.00    -0.053 A 
ATOM     17  C   UNL     1       3.716   1.302   1.060  1.00  0.00    -0.062 A 
ATOM     18  C   UNL     1       4.146   0.748  -1.189  1.00  0.00    -0.062 A 
ATOM     19  C   UNL     1       4.262   1.676  -0.162  1.00  0.00    -0.062 A 
ENDBRANCH   8  14
TORSDOF 1

