
     RDKit          3D

 28 32  0  0  0  0  0  0  0  0999 V2000
    7.5822    3.3832    0.1301 O   0  0  0  0  0  0  0  0  0  0  0  0
    6.7800    2.3135    0.5541 C   0  0  0  0  0  0  0  0  0  0  0  0
    6.2537    1.6044   -0.6630 C   0  0  0  0  0  0  0  0  0  0  0  0
    5.5257    0.4080   -0.2499 N   0  0  0  0  0  0  0  0  0  0  0  0
    4.5308    0.3646    0.6679 C   0  0  0  0  0  0  0  0  0  0  0  0
    3.7148   -0.7279    0.4047 C   0  0  0  0  0  0  0  0  0  0  0  0
    2.5902   -1.2299    1.2051 C   0  0  0  0  0  0  0  0  0  0  0  0
    2.6496   -2.4775    1.8152 C   0  0  0  0  0  0  0  0  0  0  0  0
    1.6152   -3.3516    1.7545 N   0  0  0  0  0  0  0  0  0  0  0  0
    0.4034   -2.8733    1.3793 C   0  0  0  0  0  0  0  0  0  0  0  0
   -0.7588   -3.4450    0.9888 N   0  0  0  0  0  0  0  0  0  0  0  0
   -1.5552   -2.4822    0.5251 N   0  0  0  0  0  0  0  0  0  0  0  0
   -1.0556   -1.2939    0.8126 N   0  0  0  0  0  0  0  0  0  0  0  0
   -1.7378   -0.0531    1.1311 C   0  0  0  0  0  0  0  0  0  0  0  0
   -3.0954   -0.0426    0.5021 C   0  0  0  0  0  0  0  0  0  0  0  0
   -3.3366   -0.6328   -0.7318 C   0  0  0  0  0  0  0  0  0  0  0  0
   -4.1914   -0.0118   -1.6331 C   0  0  0  0  0  0  0  0  0  0  0  0
   -4.8689    1.1553   -1.3284 C   0  0  0  0  0  0  0  0  0  0  0  0
   -5.2891    2.0217   -2.2805 N   0  0  0  0  0  0  0  0  0  0  0  0
   -6.0756    3.0388   -1.9278 C   0  0  0  0  0  0  0  0  0  0  0  0
   -6.3308    3.3207   -0.6046 C   0  0  0  0  0  0  0  0  0  0  0  0
   -5.7181    2.5718    0.3904 C   0  0  0  0  0  0  0  0  0  0  0  0
   -4.8455    1.5661   -0.0019 C   0  0  0  0  0  0  0  0  0  0  0  0
   -3.9127    1.0198    0.8439 C   0  0  0  0  0  0  0  0  0  0  0  0
    0.2442   -1.5172    1.1201 C   0  0  0  0  0  0  0  0  0  0  0  0
    1.3407   -0.7218    1.0680 N   0  0  0  0  0  0  0  0  0  0  0  0
    4.1330   -1.1789   -0.8410 C   0  0  0  0  0  0  0  0  0  0  0  0
    5.4079   -0.7284   -0.9356 N   0  0  0  0  0  0  0  0  0  0  0  0
  1  2  1  0
  2  3  1  0
  3  4  1  0
  4  5  1  0
  5  6  2  0
  6  7  1  0
  7  8  2  0
  8  9  1  0
  9 10  2  0
 10 11  1  0
 11 12  2  0
 12 13  1  0
 13 14  1  0
 14 15  1  0
 15 16  2  0
 16 17  1  0
 17 18  2  0
 18 19  1  0
 19 20  2  0
 20 21  1  0
 21 22  2  0
 22 23  1  0
 23 24  2  0
 13 25  1  0
 25 26  2  0
  6 27  1  0
 27 28  2  0
 28  4  1  0
 26  7  1  0
 25 10  1  0
 24 15  1  0
 23 18  1  0
M  END
>  <zinc_id>  (1) 
ZINC000043195316

>  <smiles>  (1) 
OCCn1cc(-c2cnc3nnn(Cc4ccc5ncccc5c4)c3n2)cn1

$$$$
