REMARK SMILES CCCC[C@@H](NC(=O)[C@@H](Cc1cn(C(=O)OC)c2ccccc12)NC(=O)[C@H](CC(C)(C)C)NC(=O)N1[C@@H](C)CCC[C@H]1C)C(=O)O
REMARK SMILES IDX 6 1 7 2 8 3 5 4 4 5 3 6 2 7 1 8 44 9 45 10 46 11 9 12 10 13
REMARK SMILES IDX 11 14 12 15 23 16 13 17 18 18 22 19 19 20 21 21 20 22 14 23
REMARK SMILES IDX 15 24 16 25 17 26 24 27 25 28 26 29 27 30 28 31 29 32 30 33
REMARK SMILES IDX 31 34 32 35 33 36 34 37 35 38 36 39 42 40 37 41 43 42 41 43
REMARK SMILES IDX 39 44 38 45 40 46
REMARK H PARENT
REMARK Flexibility Score: inf
ROOT
ATOM      1  N   UNL     1      -2.288   1.885  -1.194  1.00  0.00    -0.341 N 
ATOM      2  C   UNL     1      -0.995   1.287  -1.001  1.00  0.00     0.243 C 
ATOM      3  O   UNL     1      -0.402   0.921  -2.019  1.00  0.00    -0.273 OA
ENDROOT
BRANCH   1   4
ATOM      4  C   UNL     1      -2.140   3.165  -2.120  1.00  0.00     0.127 C 
BRANCH   4   5
ATOM      5  C   UNL     1      -3.778   3.289  -2.340  1.00  0.00    -0.022 C 
BRANCH   5   6
ATOM      6  C   UNL     1      -4.197   4.399  -1.401  1.00  0.00    -0.051 C 
BRANCH   6   7
ATOM      7  C   UNL     1      -4.104   5.769  -2.051  1.00  0.00    -0.056 C 
ATOM      8  C   UNL     1      -3.236   6.629  -1.196  1.00  0.00    -0.065 C 
ENDBRANCH   6   7
ENDBRANCH   5   6
ENDBRANCH   4   5
BRANCH   4   9
ATOM      9  C   UNL     1      -1.950   2.264  -3.457  1.00  0.00     0.326 C 
ATOM     10  O   UNL     1      -1.236   2.813  -4.323  1.00  0.00    -0.250 OA
ATOM     11  O   UNL     1      -2.819   1.233  -3.649  1.00  0.00    -0.480 OA
ENDBRANCH   4   9
ENDBRANCH   1   4
BRANCH   2  12
ATOM     12  C   UNL     1      -1.122   0.212   0.211  1.00  0.00     0.112 C 
BRANCH  12  13
ATOM     13  C   UNL     1      -1.502  -1.041  -0.812  1.00  0.00     0.004 C 
BRANCH  13  14
ATOM     14  C   UNL     1      -2.519  -1.836  -0.110  1.00  0.00    -0.019 A 
ATOM     15  C   UNL     1      -2.452  -2.886   0.765  1.00  0.00     0.020 A 
ATOM     16  C   UNL     1      -3.850  -1.842  -0.516  1.00  0.00     0.003 A 
ATOM     17  N   UNL     1      -3.695  -3.031   1.289  1.00  0.00    -0.252 N 
ATOM     18  C   UNL     1      -4.584  -2.305   0.569  1.00  0.00     0.059 A 
ATOM     19  C   UNL     1      -4.562  -1.220  -1.532  1.00  0.00    -0.053 A 
ATOM     20  C   UNL     1      -5.866  -1.823   0.812  1.00  0.00    -0.037 A 
ATOM     21  C   UNL     1      -5.814  -0.663  -1.293  1.00  0.00    -0.062 A 
ATOM     22  C   UNL     1      -6.317  -0.791  -0.004  1.00  0.00    -0.060 A 
BRANCH  17  23
ATOM     23  C   UNL     1      -4.070  -3.953   2.296  1.00  0.00     0.418 C 
ATOM     24  O   UNL     1      -4.103  -5.203   2.125  1.00  0.00    -0.224 OA
BRANCH  23  25
ATOM     25  O   UNL     1      -4.506  -3.480   3.522  1.00  0.00    -0.452 OA
ATOM     26  C   UNL     1      -5.466  -4.167   4.302  1.00  0.00     0.083 C 
ENDBRANCH  23  25
ENDBRANCH  17  23
ENDBRANCH  13  14
ENDBRANCH  12  13
BRANCH  12  27
ATOM     27  N   UNL     1       0.399  -0.200   0.162  1.00  0.00    -0.342 N 
ATOM     28  C   UNL     1       1.330   0.729   0.744  1.00  0.00     0.243 C 
ATOM     29  O   UNL     1       1.239   1.831   0.122  1.00  0.00    -0.273 OA
BRANCH  28  30
ATOM     30  C   UNL     1       2.652  -0.138   0.335  1.00  0.00     0.110 C 
BRANCH  30  31
ATOM     31  C   UNL     1       2.499  -1.133   1.636  1.00  0.00    -0.019 C 
BRANCH  31  32
ATOM     32  C   UNL     1       2.569  -0.516   2.904  1.00  0.00    -0.036 C 
ATOM     33  C   UNL     1       3.888  -0.828   3.614  1.00  0.00    -0.060 C 
ATOM     34  C   UNL     1       1.563  -1.280   3.784  1.00  0.00    -0.060 C 
ATOM     35  C   UNL     1       2.277   0.902   3.189  1.00  0.00    -0.060 C 
ENDBRANCH  31  32
ENDBRANCH  30  31
BRANCH  30  36
ATOM     36  N   UNL     1       3.745   0.775   1.046  1.00  0.00    -0.326 N 
ATOM     37  C   UNL     1       4.849   1.078   0.178  1.00  0.00     0.318 C 
ATOM     38  O   UNL     1       4.438   1.814  -0.772  1.00  0.00    -0.249 OA
BRANCH  37  39
ATOM     39  N   UNL     1       5.973   0.276  -0.125  1.00  0.00    -0.319 N 
ATOM     40  C   UNL     1       6.090  -0.238  -1.593  1.00  0.00     0.031 C 
ATOM     41  C   UNL     1       7.027   0.069   1.002  1.00  0.00     0.031 C 
ATOM     42  C   UNL     1       5.548  -1.764  -1.224  1.00  0.00    -0.044 C 
ATOM     43  C   UNL     1       7.680  -0.700  -1.587  1.00  0.00    -0.033 C 
ATOM     44  C   UNL     1       8.386   0.555   0.187  1.00  0.00    -0.033 C 
ATOM     45  C   UNL     1       7.277  -1.553   0.737  1.00  0.00    -0.044 C 
ATOM     46  C   UNL     1       8.143   0.696  -1.212  1.00  0.00    -0.049 C 
ENDBRANCH  37  39
ENDBRANCH  30  36
ENDBRANCH  28  30
ENDBRANCH  12  27
ENDBRANCH   2  12
TORSDOF 16

