REMARK SMILES NC(N)=NC(=O)c1nc(Cl)c(N)nc1N
REMARK SMILES IDX 5 1 6 2 4 3 1 4 2 5 3 6 7 7 8 8 14 9 9 10 13 11 15 12 10 13
REMARK SMILES IDX 11 14 12 15
REMARK H PARENT
REMARK Flexibility Score: inf
ROOT
ATOM      1  C   UNL     1       1.119  -1.107   0.351  1.00  0.00     0.302 C 
ATOM      2  O   UNL     1       1.466  -2.220  -0.150  1.00  0.00    -0.265 OA
ENDROOT
BRANCH   1   3
ATOM      3  N   UNL     1       2.192  -0.164   0.476  1.00  0.00    -0.174 NA
ATOM      4  N   UNL     1       3.313  -0.915  -1.469  1.00  0.00    -0.370 N 
ATOM      5  C   UNL     1       2.940   0.112  -0.540  1.00  0.00     0.194 C 
ATOM      6  N   UNL     1       3.764   1.270  -0.529  1.00  0.00    -0.370 N 
ENDBRANCH   1   3
BRANCH   1   7
ATOM      7  C   UNL     1      -0.272  -0.650   0.361  1.00  0.00     0.174 A 
ATOM      8  N   UNL     1      -1.061  -0.688  -0.731  1.00  0.00    -0.223 NA
ATOM      9  C   UNL     1      -0.768   0.043   1.456  1.00  0.00     0.157 A 
ATOM     10  C   UNL     1      -2.062   0.210  -0.906  1.00  0.00     0.172 A 
ATOM     11  N   UNL     1      -1.720   0.989   1.274  1.00  0.00    -0.209 NA
ATOM     12  N   UNL     1      -0.289  -0.327   2.745  1.00  0.00    -0.382 N 
ATOM     13  Cl  UNL     1      -3.312  -0.054  -2.118  1.00  0.00    -0.058 Cl
ATOM     14  C   UNL     1      -2.276   1.180   0.066  1.00  0.00     0.163 A 
ATOM     15  N   UNL     1      -3.034   2.320  -0.286  1.00  0.00    -0.381 N 
ENDBRANCH   1   7
TORSDOF 2

