
     RDKit          3D

 11 12  0  0  0  0  0  0  0  0999 V2000
    3.2597   -0.5819   -0.2176 O   0  0  0  0  0  0  0  0  0  0  0  0
    2.0769   -0.2254    0.0702 C   0  0  0  0  0  0  0  0  0  0  0  0
    1.8007    1.0540    0.5397 C   0  0  0  0  0  0  0  0  0  0  0  0
    0.5950    1.6259    0.1528 C   0  0  0  0  0  0  0  0  0  0  0  0
   -0.3999    0.7508   -0.2550 C   0  0  0  0  0  0  0  0  0  0  0  0
   -1.7269    1.1546   -0.3216 C   0  0  0  0  0  0  0  0  0  0  0  0
   -2.7701    0.2920   -0.0648 C   0  0  0  0  0  0  0  0  0  0  0  0
   -2.4828   -0.9732    0.4358 C   0  0  0  0  0  0  0  0  0  0  0  0
   -1.2344   -1.4733    0.0828 C   0  0  0  0  0  0  0  0  0  0  0  0
   -0.1853   -0.6203   -0.2313 C   0  0  0  0  0  0  0  0  0  0  0  0
    1.0672   -1.0033   -0.1910 O   0  0  0  0  0  0  0  0  0  0  0  0
  1  2  2  0
  2  3  1  0
  3  4  2  0
  4  5  1  0
  5  6  2  0
  6  7  1  0
  7  8  2  0
  8  9  1  0
  9 10  2  0
 10 11  1  0
 11  2  1  0
 10  5  1  0
M  END
>  <zinc_id>  (1) 
ZINC000000074709

>  <smiles>  (1) 
O=c1ccc2ccccc2o1

$$$$
