REMARK SMILES CC[C@@H]1C(=O)N(C)c2cnc(Nc3ccc(C(=O)NC4CCN(C)CC4)cc3OC)nc2N1C1CCCC1
REMARK SMILES IDX 13 1 14 2 15 3 16 4 27 5 28 6 12 7 11 8 3 9 4 10 33 11 5 12
REMARK SMILES IDX 6 13 32 14 7 15 8 16 31 17 9 18 10 19 2 20 1 21 34 22 35 23
REMARK SMILES IDX 38 24 36 25 37 26 29 27 30 28 17 29 18 30 19 31 20 32 21 33
REMARK SMILES IDX 26 34 22 35 25 36 23 37 24 38
REMARK H PARENT
REMARK Flexibility Score: inf
ROOT
ATOM      1  C   UNL     1       0.255  -1.386  -1.073  1.00  0.00     0.084 A 
ATOM      2  C   UNL     1       0.345  -0.047  -0.728  1.00  0.00    -0.034 A 
ATOM      3  C   UNL     1       1.545   0.403  -0.185  1.00  0.00    -0.047 A 
ATOM      4  C   UNL     1       2.636  -0.445  -0.146  1.00  0.00     0.043 A 
ATOM      5  C   UNL     1       2.375  -1.803  -0.154  1.00  0.00    -0.005 A 
ATOM      6  C   UNL     1       1.082  -2.242  -0.355  1.00  0.00     0.143 A 
ENDROOT
BRANCH   1   7
ATOM      7  N   UNL     1      -0.849  -1.963  -1.743  1.00  0.00    -0.321 N 
BRANCH   7   8
ATOM      8  C   UNL     1      -2.139  -2.068  -1.120  1.00  0.00     0.229 A 
ATOM      9  C   UNL     1      -4.648   1.228   1.442  1.00  0.00     0.110 C 
ATOM     10  C   UNL     1      -3.292   0.773   2.257  1.00  0.00     0.249 C 
ATOM     11  N   UNL     1      -4.060   0.746   0.031  1.00  0.00    -0.340 N 
ATOM     12  O   UNL     1      -3.117   1.463   3.295  1.00  0.00    -0.272 OA
ATOM     13  N   UNL     1      -3.346  -0.655   2.410  1.00  0.00    -0.309 N 
ATOM     14  C   UNL     1      -3.612  -0.599   0.022  1.00  0.00     0.159 A 
ATOM     15  C   UNL     1      -2.730  -1.323   3.555  1.00  0.00     0.015 C 
ATOM     16  C   UNL     1      -3.515  -1.370   1.177  1.00  0.00     0.105 A 
ATOM     17  N   UNL     1      -3.017  -1.033  -1.120  1.00  0.00    -0.193 NA
ATOM     18  C   UNL     1      -3.010  -2.650   0.985  1.00  0.00     0.058 A 
ATOM     19  N   UNL     1      -2.392  -3.009  -0.172  1.00  0.00    -0.219 NA
BRANCH   9  20
ATOM     20  C   UNL     1      -4.032   2.768   1.199  1.00  0.00    -0.026 C 
ATOM     21  C   UNL     1      -3.759   2.940   1.229  1.00  0.00    -0.063 C 
ENDBRANCH   9  20
BRANCH  11  22
ATOM     22  C   UNL     1      -4.867   1.173  -1.097  1.00  0.00     0.031 C 
ATOM     23  C   UNL     1      -4.383   2.404  -1.777  1.00  0.00    -0.033 C 
ATOM     24  C   UNL     1      -6.316   1.324  -0.779  1.00  0.00    -0.033 C 
ATOM     25  C   UNL     1      -5.612   3.252  -2.057  1.00  0.00    -0.051 C 
ATOM     26  C   UNL     1      -6.621   2.790  -1.037  1.00  0.00    -0.051 C 
ENDBRANCH  11  22
ENDBRANCH   7   8
ENDBRANCH   1   7
BRANCH   6  27
ATOM     27  O   UNL     1       0.679  -3.553  -0.095  1.00  0.00    -0.495 OA
ATOM     28  C   UNL     1       1.632  -4.550   0.156  1.00  0.00     0.078 C 
ENDBRANCH   6  27
BRANCH   4  29
ATOM     29  C   UNL     1       4.000   0.072  -0.229  1.00  0.00     0.251 C 
ATOM     30  O   UNL     1       4.218   1.283   0.044  1.00  0.00    -0.269 OA
ATOM     31  N   UNL     1       5.115  -0.780  -0.319  1.00  0.00    -0.349 N 
BRANCH  31  32
ATOM     32  C   UNL     1       6.356  -0.493   0.358  1.00  0.00     0.032 C 
ATOM     33  C   UNL     1       7.563  -0.582  -0.524  1.00  0.00    -0.020 C 
ATOM     34  C   UNL     1       6.303   0.823   1.088  1.00  0.00    -0.020 C 
ATOM     35  C   UNL     1       7.954   0.708  -1.175  1.00  0.00    -0.000 C 
ATOM     36  C   UNL     1       7.618   1.543   1.056  1.00  0.00    -0.000 C 
ATOM     37  N   UNL     1       8.094   1.815  -0.273  1.00  0.00    -0.306 NA
ATOM     38  C   UNL     1       7.544   3.043  -0.831  1.00  0.00    -0.013 C 
ENDBRANCH  31  32
ENDBRANCH   4  29
TORSDOF 7

