REMARK SMILES O=C1NC(=O)c2cc(Nc3ccc(F)cc3)c(Nc3ccc(F)cc3)cc21
REMARK SMILES IDX 1 1 2 2 3 3 4 4 5 5 6 6 7 7 8 8 17 9 26 10 27 11 18 12 19 13
REMARK SMILES IDX 20 14 25 15 21 16 24 17 22 18 23 19 9 20 10 21 11 22 16 23
REMARK SMILES IDX 12 24 15 25 13 26 14 27
REMARK H PARENT
REMARK Flexibility Score: inf
ROOT
ATOM      1  O   UNL     1       0.829   3.301   2.554  1.00  0.00    -0.269 OA
ATOM      2  C   UNL     1       0.568   3.486   1.326  1.00  0.00     0.259 C 
ATOM      3  N   UNL     1      -0.011   4.648   0.721  1.00  0.00    -0.288 N 
ATOM      4  C   UNL     1      -0.421   4.320  -0.611  1.00  0.00     0.259 C 
ATOM      5  O   UNL     1      -0.842   5.099  -1.514  1.00  0.00    -0.269 OA
ATOM      6  C   UNL     1      -0.462   2.852  -0.625  1.00  0.00     0.055 A 
ATOM      7  C   UNL     1      -1.049   1.923  -1.477  1.00  0.00    -0.023 A 
ATOM      8  C   UNL     1      -0.592   0.612  -1.418  1.00  0.00     0.063 A 
ATOM      9  C   UNL     1       0.599   0.329  -0.758  1.00  0.00     0.063 A 
ATOM     10  C   UNL     1       1.137   1.225   0.159  1.00  0.00    -0.023 A 
ATOM     11  C   UNL     1       0.544   2.478   0.259  1.00  0.00     0.055 A 
ENDROOT
BRANCH   9  12
ATOM     12  N   UNL     1       1.374  -0.747  -1.300  1.00  0.00    -0.354 N 
BRANCH  12  13
ATOM     13  C   UNL     1       2.372  -1.425  -0.528  1.00  0.00     0.039 A 
ATOM     14  C   UNL     1       2.415  -2.804  -0.694  1.00  0.00    -0.036 A 
ATOM     15  C   UNL     1       3.612  -0.823  -0.352  1.00  0.00    -0.036 A 
ATOM     16  C   UNL     1       3.314  -3.507   0.100  1.00  0.00    -0.024 A 
ATOM     17  C   UNL     1       4.613  -1.559   0.271  1.00  0.00    -0.024 A 
ATOM     18  C   UNL     1       4.288  -2.815   0.767  1.00  0.00     0.123 A 
ATOM     19  F   UNL     1       5.135  -3.505   1.568  1.00  0.00    -0.207 F 
ENDBRANCH  12  13
ENDBRANCH   9  12
BRANCH   8  20
ATOM     20  N   UNL     1      -1.449  -0.502  -1.697  1.00  0.00    -0.354 N 
BRANCH  20  21
ATOM     21  C   UNL     1      -2.481  -0.857  -0.770  1.00  0.00     0.039 A 
ATOM     22  C   UNL     1      -3.814  -0.745  -1.069  1.00  0.00    -0.036 A 
ATOM     23  C   UNL     1      -2.121  -1.737   0.240  1.00  0.00    -0.036 A 
ATOM     24  C   UNL     1      -4.759  -1.437  -0.325  1.00  0.00    -0.024 A 
ATOM     25  C   UNL     1      -3.058  -2.421   0.975  1.00  0.00    -0.024 A 
ATOM     26  C   UNL     1      -4.409  -2.275   0.719  1.00  0.00     0.123 A 
ATOM     27  F   UNL     1      -5.333  -3.114   1.243  1.00  0.00    -0.207 F 
ENDBRANCH  20  21
ENDBRANCH   8  20
TORSDOF 4

