
     RDKit          3D

 33 37  0  0  0  0  0  0  0  0999 V2000
    3.5585   -1.8561   -2.0297 C   0  0  0  0  0  0  0  0  0  0  0  0
    2.8262   -0.6406   -1.9048 O   0  0  0  0  0  0  0  0  0  0  0  0
    1.8549   -0.4727   -0.9132 C   0  0  0  0  0  0  0  0  0  0  0  0
    0.5059   -0.6863   -1.1687 C   0  0  0  0  0  0  0  0  0  0  0  0
   -0.2639   -1.3003   -0.1928 C   0  0  0  0  0  0  0  0  0  0  0  0
    0.2361   -1.5921    1.0706 C   0  0  0  0  0  0  0  0  0  0  0  0
    1.4548   -1.0369    1.3950 C   0  0  0  0  0  0  0  0  0  0  0  0
    2.1931   -0.3628    0.4302 C   0  0  0  0  0  0  0  0  0  0  0  0
    3.4820    0.0967    0.7172 O   0  0  0  0  0  0  0  0  0  0  0  0
    3.9305    0.0533    2.0499 C   0  0  0  0  0  0  0  0  0  0  0  0
    5.4251    0.1295    2.1819 C   0  0  0  0  0  0  0  0  0  0  0  0
    6.0944    0.0590    0.8305 C   0  0  0  0  0  0  0  0  0  0  0  0
    6.6462    1.3658    0.5529 N   0  0  0  0  0  0  0  0  0  0  0  0
    8.0590    1.2989    0.2839 C   0  0  0  0  0  0  0  0  0  0  0  0
    8.2436    1.4395   -1.2002 C   0  0  0  0  0  0  0  0  0  0  0  0
    6.8515    1.4885   -1.7680 C   0  0  0  0  0  0  0  0  0  0  0  0
    6.0073    1.9402   -0.6067 C   0  0  0  0  0  0  0  0  0  0  0  0
   -0.2849   -2.6578    1.7112 N   0  0  0  0  0  0  0  0  0  0  0  0
   -1.4580   -3.1748    1.2747 C   0  0  0  0  0  0  0  0  0  0  0  0
   -2.1734   -2.4913    0.3498 N   0  0  0  0  0  0  0  0  0  0  0  0
   -1.5603   -1.6660   -0.5331 C   0  0  0  0  0  0  0  0  0  0  0  0
   -2.2991   -0.8854   -1.4276 O   0  0  0  0  0  0  0  0  0  0  0  0
   -3.3158   -0.1084   -0.8696 C   0  0  0  0  0  0  0  0  0  0  0  0
   -2.9215    0.8268    0.0656 C   0  0  0  0  0  0  0  0  0  0  0  0
   -3.8998    1.4189    0.8241 C   0  0  0  0  0  0  0  0  0  0  0  0
   -5.2520    1.2857    0.5321 C   0  0  0  0  0  0  0  0  0  0  0  0
   -6.2117    2.2187    0.7439 N   0  0  0  0  0  0  0  0  0  0  0  0
   -7.1928    2.0867   -0.1664 C   0  0  0  0  0  0  0  0  0  0  0  0
   -8.4585    2.8545   -0.0943 C   0  0  0  0  0  0  0  0  0  0  0  0
   -6.8823    0.9694   -0.9275 C   0  0  0  0  0  0  0  0  0  0  0  0
   -5.6009    0.5519   -0.5953 C   0  0  0  0  0  0  0  0  0  0  0  0
   -4.6364   -0.2258   -1.2187 C   0  0  0  0  0  0  0  0  0  0  0  0
   -4.9577   -0.9268   -2.3292 F   0  0  0  0  0  0  0  0  0  0  0  0
  1  2  1  0
  2  3  1  0
  3  4  2  0
  4  5  1  0
  5  6  2  0
  6  7  1  0
  7  8  2  0
  8  9  1  0
  9 10  1  0
 10 11  1  0
 11 12  1  0
 12 13  1  0
 13 14  1  0
 14 15  1  0
 15 16  1  0
 16 17  1  0
  6 18  1  0
 18 19  2  0
 19 20  1  0
 20 21  2  0
 21 22  1  0
 22 23  1  0
 23 24  2  0
 24 25  1  0
 25 26  2  0
 26 27  1  0
 27 28  1  0
 28 29  1  0
 28 30  2  0
 30 31  1  0
 31 32  2  0
 32 33  1  0
  8  3  1  0
 17 13  1  0
 32 23  1  0
 21  5  1  0
 31 26  1  0
M  END
>  <zinc_id>  (1) 
ZINC000003948085

>  <smiles>  (1) 
COc1cc2c(Oc3ccc4[nH]c(C)cc4c3F)ncnc2cc1OCCCN1CCCC1

$$$$
