
     RDKit          3D

 24 26  0  0  0  0  0  0  0  0999 V2000
   -3.1637    2.8835   -0.6570 C   0  0  0  0  0  0  0  0  0  0  0  0
   -2.8912    1.4949   -0.5884 O   0  0  0  0  0  0  0  0  0  0  0  0
   -3.7520    0.6821    0.1448 C   0  0  0  0  0  0  0  0  0  0  0  0
   -5.0223    1.0696    0.5156 C   0  0  0  0  0  0  0  0  0  0  0  0
   -5.8298    0.2862    1.3274 C   0  0  0  0  0  0  0  0  0  0  0  0
   -5.2013   -0.6566    2.1299 C   0  0  0  0  0  0  0  0  0  0  0  0
   -3.9075   -1.0398    1.8131 C   0  0  0  0  0  0  0  0  0  0  0  0
   -3.2222   -0.4122    0.7817 C   0  0  0  0  0  0  0  0  0  0  0  0
   -1.9180   -1.2989    0.0011 S   0  0  0  0  0  0  0  0  0  0  0  0
   -1.1674   -2.0163    1.0992 O   0  0  0  0  0  0  0  0  0  0  0  0
   -2.4907   -2.3616   -0.9005 O   0  0  0  0  0  0  0  0  0  0  0  0
   -0.8745   -0.2302   -0.8422 N   0  0  0  0  0  0  0  0  0  0  0  0
    0.5363   -0.4377   -0.7117 C   0  0  0  0  0  0  0  0  0  0  0  0
    1.0296   -1.7358   -0.6798 C   0  0  0  0  0  0  0  0  0  0  0  0
    2.3675   -1.8994   -0.3477 C   0  0  0  0  0  0  0  0  0  0  0  0
    3.1155   -0.8940    0.2461 C   0  0  0  0  0  0  0  0  0  0  0  0
    2.4219    0.2506    0.6194 C   0  0  0  0  0  0  0  0  0  0  0  0
    1.2314    0.5512   -0.0273 C   0  0  0  0  0  0  0  0  0  0  0  0
    3.2338    1.4204    1.0787 C   0  0  0  0  0  0  0  0  0  0  0  0
    4.3817    1.5347    0.1837 N   0  0  0  0  0  0  0  0  0  0  0  0
    4.9008    2.8347   -0.1694 C   0  0  0  0  0  0  0  0  0  0  0  0
    5.2169    0.3799    0.0402 C   0  0  0  0  0  0  0  0  0  0  0  0
    6.4580    0.4736   -0.1371 O   0  0  0  0  0  0  0  0  0  0  0  0
    4.5472   -0.8790    0.1801 N   0  0  0  0  0  0  0  0  0  0  0  0
  1  2  1  0
  2  3  1  0
  3  4  2  0
  4  5  1  0
  5  6  2  0
  6  7  1  0
  7  8  2  0
  8  9  1  0
  9 10  2  0
  9 11  2  0
  9 12  1  0
 12 13  1  0
 13 14  2  0
 14 15  1  0
 15 16  2  0
 16 17  1  0
 17 18  2  0
 17 19  1  0
 19 20  1  0
 20 21  1  0
 20 22  1  0
 22 23  2  0
 22 24  1  0
  8  3  1  0
 18 13  1  0
 24 16  1  0
M  END
>  <zinc_id>  (1) 
ZINC000086003193

>  <smiles>  (1) 
COc1ccccc1S(=O)(=O)Nc1ccc2c(c1)CN(C)C(=O)N2

$$$$
