
     RDKit          3D

 17 18  0  0  0  0  0  0  0  0999 V2000
   -2.8488   -1.9628   -1.2253 C   0  0  0  0  0  0  0  0  0  0  0  0
   -2.5507   -1.0920   -0.0104 C   0  0  0  0  0  0  0  0  0  0  0  0
   -3.3516   -1.6955    1.1375 C   0  0  0  0  0  0  0  0  0  0  0  0
   -1.0897   -1.2585    0.2666 C   0  0  0  0  0  0  0  0  0  0  0  0
   -0.7603   -2.3732    0.7626 O   0  0  0  0  0  0  0  0  0  0  0  0
   -0.1358   -0.2134   -0.0573 C   0  0  0  0  0  0  0  0  0  0  0  0
    1.2435   -0.3772   -0.0984 C   0  0  0  0  0  0  0  0  0  0  0  0
    1.9792   -1.3794   -0.7207 C   0  0  0  0  0  0  0  0  0  0  0  0
    3.3546   -1.2023   -0.7158 C   0  0  0  0  0  0  0  0  0  0  0  0
    3.9254   -0.0307   -0.2357 C   0  0  0  0  0  0  0  0  0  0  0  0
    3.1519    0.8389    0.5228 C   0  0  0  0  0  0  0  0  0  0  0  0
    1.8178    0.7890    0.2886 N   0  0  0  0  0  0  0  0  0  0  0  0
    0.8550    1.6939    0.4687 N   0  0  0  0  0  0  0  0  0  0  0  0
   -0.3461    1.1400    0.1762 C   0  0  0  0  0  0  0  0  0  0  0  0
   -1.6185    1.8351   -0.1952 C   0  0  0  0  0  0  0  0  0  0  0  0
   -1.3761    2.7808   -1.3537 C   0  0  0  0  0  0  0  0  0  0  0  0
   -2.2501    2.5073    0.9895 C   0  0  0  0  0  0  0  0  0  0  0  0
  1  2  1  0
  2  3  1  0
  2  4  1  0
  4  5  2  0
  4  6  1  0
  6  7  2  0
  7  8  1  0
  8  9  2  0
  9 10  1  0
 10 11  2  0
 11 12  1  0
 12 13  1  0
 13 14  2  0
 14 15  1  0
 15 16  1  0
 15 17  1  0
 14  6  1  0
 12  7  1  0
M  END
>  <zinc_id>  (1) 
ZINC000000004234

>  <smiles>  (1) 
CC(C)C(=O)c1c(C(C)C)nn2ccccc12

$$$$
