
     RDKit          3D

 16 16  0  0  0  0  0  0  0  0999 V2000
   -2.0591   -2.4702   -0.3979 C   0  0  0  0  0  0  0  0  0  0  0  0
   -2.2292   -1.0696    0.0464 C   0  0  0  0  0  0  0  0  0  0  0  0
   -3.1182   -0.2019   -0.5757 C   0  0  0  0  0  0  0  0  0  0  0  0
   -3.0524    1.1619   -0.3181 C   0  0  0  0  0  0  0  0  0  0  0  0
   -3.2763    2.3499   -1.5975 Cl  0  0  0  0  0  0  0  0  0  0  0  0
   -2.5183    1.5111    0.9159 C   0  0  0  0  0  0  0  0  0  0  0  0
   -1.8179    0.5725    1.6633 C   0  0  0  0  0  0  0  0  0  0  0  0
   -1.4019   -0.6115    1.0653 C   0  0  0  0  0  0  0  0  0  0  0  0
   -0.1365   -1.1407    1.2852 O   0  0  0  0  0  0  0  0  0  0  0  0
    0.7945   -1.2919    0.2331 C   0  0  0  0  0  0  0  0  0  0  0  0
    1.0894   -0.0101   -0.4889 C   0  0  0  0  0  0  0  0  0  0  0  0
    1.7951    0.9354    0.4651 C   0  0  0  0  0  0  0  0  0  0  0  0
    3.2626    0.6683    0.3714 C   0  0  0  0  0  0  0  0  0  0  0  0
    3.9869    1.1577   -0.5381 O   0  0  0  0  0  0  0  0  0  0  0  0
    3.7953   -0.4454    1.0904 N   0  0  0  0  0  0  0  0  0  0  0  0
    4.8861   -1.1155    0.6368 O   0  0  0  0  0  0  0  0  0  0  0  0
  1  2  1  0
  2  3  2  0
  3  4  1  0
  4  5  1  0
  4  6  2  0
  6  7  1  0
  7  8  2  0
  8  9  1  0
  9 10  1  0
 10 11  1  0
 11 12  1  0
 12 13  1  0
 13 14  2  0
 13 15  1  0
 15 16  1  0
  8  2  1  0
M  END
>  <zinc_id>  (1) 
ZINC000004148260

>  <smiles>  (1) 
Cc1cc(Cl)ccc1OCCCC(=O)NO

$$$$
