
     RDKit          3D

 16 16  0  0  0  0  0  0  0  0999 V2000
   -1.1806    2.6477   -0.1553 C   0  0  0  0  0  0  0  0  0  0  0  0
   -0.0417    1.7208   -0.0477 C   0  0  0  0  0  0  0  0  0  0  0  0
    1.2330    2.1637    0.2658 C   0  0  0  0  0  0  0  0  0  0  0  0
    2.3226    1.3051    0.1841 C   0  0  0  0  0  0  0  0  0  0  0  0
    2.0260   -0.0448    0.3098 C   0  0  0  0  0  0  0  0  0  0  0  0
    3.0754   -1.0041    0.4825 N   0  0  0  0  0  0  0  0  0  0  0  0
    3.9979   -1.1115   -0.3570 O   0  0  0  0  0  0  0  0  0  0  0  0
    2.8124   -2.0798    1.3097 O   0  0  0  0  0  0  0  0  0  0  0  0
    0.7034   -0.4689    0.3757 C   0  0  0  0  0  0  0  0  0  0  0  0
   -0.3228    0.3623   -0.0172 C   0  0  0  0  0  0  0  0  0  0  0  0
   -1.7451   -0.2241   -0.8675 S   0  0  0  0  0  0  0  0  0  0  0  0
   -1.4488   -1.5049   -1.6122 O   0  0  0  0  0  0  0  0  0  0  0  0
   -2.2028    0.8332   -1.8476 O   0  0  0  0  0  0  0  0  0  0  0  0
   -3.0398   -0.5007    0.2469 N   0  0  0  0  0  0  0  0  0  0  0  0
   -3.5349   -1.8538    0.1194 C   0  0  0  0  0  0  0  0  0  0  0  0
   -2.6541   -0.2402    1.6106 C   0  0  0  0  0  0  0  0  0  0  0  0
  1  2  1  0
  2  3  2  0
  3  4  1  0
  4  5  2  0
  5  6  1  0
  6  7  2  0
  6  8  1  0
  5  9  1  0
  9 10  2  0
 10 11  1  0
 11 12  2  0
 11 13  2  0
 11 14  1  0
 14 15  1  0
 14 16  1  0
 10  2  1  0
M  CHG  2   6   1   8  -1
M  END
>  <zinc_id>  (1) 
ZINC000004844756

>  <smiles>  (1) 
Cc1ccc([N+](=O)[O-])cc1S(=O)(=O)N(C)C

$$$$
