
     RDKit          3D

 37 42  0  0  0  0  0  0  0  0999 V2000
   -8.7134    2.6485   -1.3782 C   0  0  0  0  0  0  0  0  0  0  0  0
   -8.3237    1.2244   -1.1238 C   0  0  0  0  0  0  0  0  0  0  0  0
   -9.1671    0.1662   -1.4465 C   0  0  0  0  0  0  0  0  0  0  0  0
   -8.0838   -1.1570   -1.2846 S   0  0  0  0  0  0  0  0  0  0  0  0
   -6.7822   -0.3397   -0.5212 C   0  0  0  0  0  0  0  0  0  0  0  0
   -5.4552   -0.8158   -0.1109 C   0  0  0  0  0  0  0  0  0  0  0  0
   -5.2583   -2.0218    0.4221 N   0  0  0  0  0  0  0  0  0  0  0  0
   -4.0406   -2.5460    0.2884 N   0  0  0  0  0  0  0  0  0  0  0  0
   -2.9557   -1.7429    0.3904 C   0  0  0  0  0  0  0  0  0  0  0  0
   -1.6760   -2.3500    0.3702 N   0  0  0  0  0  0  0  0  0  0  0  0
   -0.4661   -1.6520    0.1369 C   0  0  0  0  0  0  0  0  0  0  0  0
    0.4020   -1.5209    1.2139 C   0  0  0  0  0  0  0  0  0  0  0  0
    1.5513   -0.7692    1.0400 C   0  0  0  0  0  0  0  0  0  0  0  0
    2.0823   -0.5995   -0.2302 C   0  0  0  0  0  0  0  0  0  0  0  0
    3.4268   -0.2931   -0.3946 O   0  0  0  0  0  0  0  0  0  0  0  0
    4.0169    0.6510    0.4365 C   0  0  0  0  0  0  0  0  0  0  0  0
    3.4575    1.0180    1.6144 N   0  0  0  0  0  0  0  0  0  0  0  0
    4.1075    1.8506    2.4617 C   0  0  0  0  0  0  0  0  0  0  0  0
    4.9547    2.7731    1.8585 C   0  0  0  0  0  0  0  0  0  0  0  0
    5.4477    2.5267    0.5832 C   0  0  0  0  0  0  0  0  0  0  0  0
    5.1040    1.3436   -0.0587 C   0  0  0  0  0  0  0  0  0  0  0  0
    6.0793    0.6475   -0.9066 C   0  0  0  0  0  0  0  0  0  0  0  0
    7.0282    1.4127   -1.5734 C   0  0  0  0  0  0  0  0  0  0  0  0
    8.2122    0.8242   -1.9802 C   0  0  0  0  0  0  0  0  0  0  0  0
    8.6625   -0.2307   -1.2584 N   0  0  0  0  0  0  0  0  0  0  0  0
    7.6973   -1.0753   -0.8212 C   0  0  0  0  0  0  0  0  0  0  0  0
    8.0762   -2.3804   -0.3868 N   0  0  0  0  0  0  0  0  0  0  0  0
    6.4212   -0.6456   -0.6949 N   0  0  0  0  0  0  0  0  0  0  0  0
    1.3919   -1.1820   -1.2795 C   0  0  0  0  0  0  0  0  0  0  0  0
    0.1457   -1.7333   -1.1079 C   0  0  0  0  0  0  0  0  0  0  0  0
   -3.1715   -0.3967    0.2215 C   0  0  0  0  0  0  0  0  0  0  0  0
   -2.0786    0.4320    0.0441 C   0  0  0  0  0  0  0  0  0  0  0  0
   -2.3120    1.7693   -0.2215 C   0  0  0  0  0  0  0  0  0  0  0  0
   -3.4559    2.0779   -0.9466 C   0  0  0  0  0  0  0  0  0  0  0  0
   -4.5635    1.2570   -0.8595 C   0  0  0  0  0  0  0  0  0  0  0  0
   -4.3532   -0.0235   -0.4065 C   0  0  0  0  0  0  0  0  0  0  0  0
   -7.4084    0.8526   -0.1742 C   0  0  0  0  0  0  0  0  0  0  0  0
  1  2  1  0
  2  3  2  0
  3  4  1  0
  4  5  1  0
  5  6  1  0
  6  7  2  0
  7  8  1  0
  8  9  2  0
  9 10  1  0
 10 11  1  0
 11 12  2  0
 12 13  1  0
 13 14  2  0
 14 15  1  0
 15 16  1  0
 16 17  2  0
 17 18  1  0
 18 19  2  0
 19 20  1  0
 20 21  2  0
 21 22  1  0
 22 23  2  0
 23 24  1  0
 24 25  2  0
 25 26  1  0
 26 27  1  0
 26 28  2  0
 14 29  1  0
 29 30  2  0
  9 31  1  0
 31 32  2  0
 32 33  1  0
 33 34  2  0
 34 35  1  0
 35 36  2  0
  5 37  2  0
 37  2  1  0
 36  6  1  0
 30 11  1  0
 36 31  1  0
 21 16  1  0
 28 22  1  0
M  END
>  <zinc_id>  (1) 
ZINC000043208325

>  <smiles>  (1) 
Cc1csc(-c2nnc(Nc3ccc(Oc4ncccc4-c4ccnc(N)n4)cc3)c3ccccc23)c1

$$$$
