
     RDKit          3D

 29 31  0  0  0  0  0  0  0  0999 V2000
    2.8471   -3.8182    0.2149 C   0  0  0  0  0  0  0  0  0  0  0  0
    1.6261   -2.9615    0.1253 C   0  0  0  0  0  0  0  0  0  0  0  0
    0.5284   -3.1779    0.9487 C   0  0  0  0  0  0  0  0  0  0  0  0
   -0.6737   -2.6931    0.4468 C   0  0  0  0  0  0  0  0  0  0  0  0
   -0.7180   -1.8604   -0.6555 C   0  0  0  0  0  0  0  0  0  0  0  0
   -2.0144   -1.4197   -1.0691 N   0  0  0  0  0  0  0  0  0  0  0  0
   -2.5582   -0.2217   -0.5410 C   0  0  0  0  0  0  0  0  0  0  0  0
   -1.7523    0.7403   -0.3936 O   0  0  0  0  0  0  0  0  0  0  0  0
   -3.9544   -0.0542   -0.1758 C   0  0  0  0  0  0  0  0  0  0  0  0
   -4.7782   -1.1225    0.1581 C   0  0  0  0  0  0  0  0  0  0  0  0
   -5.8913   -0.9279    0.9668 C   0  0  0  0  0  0  0  0  0  0  0  0
   -6.4801    0.3281    0.9073 C   0  0  0  0  0  0  0  0  0  0  0  0
   -5.7013    1.4361    0.5993 C   0  0  0  0  0  0  0  0  0  0  0  0
   -6.3183    2.6911    0.3126 N   0  0  0  0  0  0  0  0  0  0  0  0
   -5.5923    3.8986    0.6661 C   0  0  0  0  0  0  0  0  0  0  0  0
   -7.3025    2.7362   -0.7402 C   0  0  0  0  0  0  0  0  0  0  0  0
   -4.4866    1.2013   -0.0272 C   0  0  0  0  0  0  0  0  0  0  0  0
    0.4445   -1.2060   -1.0457 C   0  0  0  0  0  0  0  0  0  0  0  0
    1.6247   -1.8171   -0.6626 C   0  0  0  0  0  0  0  0  0  0  0  0
    2.9121   -1.2980   -1.0156 N   0  0  0  0  0  0  0  0  0  0  0  0
    3.3069   -0.0755   -0.3833 C   0  0  0  0  0  0  0  0  0  0  0  0
    2.4769    0.8746   -0.5146 O   0  0  0  0  0  0  0  0  0  0  0  0
    4.6792    0.1513    0.0852 C   0  0  0  0  0  0  0  0  0  0  0  0
    5.7692    0.0837   -0.7494 C   0  0  0  0  0  0  0  0  0  0  0  0
    6.8379    0.9593   -0.6038 C   0  0  0  0  0  0  0  0  0  0  0  0
    6.8624    1.8795    0.4351 C   0  0  0  0  0  0  0  0  0  0  0  0
    7.5504    3.0798    0.2914 O   0  0  0  0  0  0  0  0  0  0  0  0
    5.9308    1.7072    1.4454 C   0  0  0  0  0  0  0  0  0  0  0  0
    4.8251    0.8866    1.2559 C   0  0  0  0  0  0  0  0  0  0  0  0
  1  2  1  0
  2  3  2  0
  3  4  1  0
  4  5  2  0
  5  6  1  0
  6  7  1  0
  7  8  2  0
  7  9  1  0
  9 10  2  0
 10 11  1  0
 11 12  2  0
 12 13  1  0
 13 14  1  0
 14 15  1  0
 14 16  1  0
 13 17  2  0
  5 18  1  0
 18 19  2  0
 19 20  1  0
 20 21  1  0
 21 22  2  0
 21 23  1  0
 23 24  2  0
 24 25  1  0
 25 26  2  0
 26 27  1  0
 26 28  1  0
 28 29  2  0
 19  2  1  0
 29 23  1  0
 17  9  1  0
M  END
>  <zinc_id>  (1) 
ZINC000000581684

>  <smiles>  (1) 
Cc1ccc(NC(=O)c2cccc(N(C)C)c2)cc1NC(=O)c1ccc(O)cc1

$$$$
