REMARK SMILES Cc1cc(-c2ccc3c(c2)CC[C@H]3N2CC3(CCN(C(=O)Cc4cn5cc(C)sc5n4)CC3)C2)ncn1
REMARK SMILES IDX 20 1 21 2 19 3 18 4 17 5 16 6 15 7 14 8 34 9 33 10 32 11
REMARK SMILES IDX 22 12 23 13 28 14 27 15 26 16 29 17 25 18 30 19 24 20 31 21
REMARK SMILES IDX 13 22 12 23 8 24 11 25 9 26 7 27 10 28 6 29 5 30 4 31 3 32
REMARK SMILES IDX 35 33 2 34 36 35 1 36 37 37
REMARK H PARENT
REMARK Flexibility Score: inf
ROOT
ATOM      1  C   UNL     1       3.812   0.475  -0.017  1.00  0.00     0.228 C 
ATOM      2  O   UNL     1       3.770  -0.701  -0.491  1.00  0.00    -0.274 OA
ATOM      3  N   UNL     1       2.693   1.042   0.677  1.00  0.00    -0.342 N 
ATOM      4  C   UNL     1       1.481   0.234   0.796  1.00  0.00     0.021 C 
ATOM      5  C   UNL     1       0.690   0.323  -0.506  1.00  0.00    -0.027 C 
ATOM      6  C   UNL     1       0.511   1.775  -0.808  1.00  0.00    -0.001 C 
ATOM      7  C   UNL     1      -0.585   2.181  -1.720  1.00  0.00     0.006 C 
ATOM      8  N   UNL     1      -1.430   2.416  -0.548  1.00  0.00    -0.295 NA
ATOM      9  C   UNL     1      -0.233   2.543   0.275  1.00  0.00     0.006 C 
ATOM     10  C   UNL     1       1.852   2.470  -1.013  1.00  0.00    -0.027 C 
ATOM     11  C   UNL     1       2.462   2.457   0.386  1.00  0.00     0.021 C 
ENDROOT
BRANCH   1  12
ATOM     12  C   UNL     1       4.908   1.335  -0.569  1.00  0.00     0.071 C 
BRANCH  12  13
ATOM     13  C   UNL     1       6.253   0.737  -0.295  1.00  0.00     0.070 A 
ATOM     14  C   UNL     1       8.542  -4.277   0.835  1.00  0.00    -0.029 C 
ATOM     15  C   UNL     1       8.399  -2.937   0.403  1.00  0.00     0.022 A 
ATOM     16  C   UNL     1       8.277  -1.772   1.154  1.00  0.00     0.024 A 
ATOM     17  S   UNL     1       8.524  -2.191  -1.142  1.00  0.00    -0.102 S 
ATOM     18  N   UNL     1       7.543  -0.848   0.564  1.00  0.00    -0.297 N 
ATOM     19  C   UNL     1       7.877  -0.646  -0.734  1.00  0.00     0.194 A 
ATOM     20  C   UNL     1       6.707   0.172   0.890  1.00  0.00     0.033 A 
ATOM     21  N   UNL     1       7.256   0.484  -1.170  1.00  0.00    -0.223 NA
ENDBRANCH  12  13
ENDBRANCH   1  12
BRANCH   8  22
ATOM     22  C   UNL     1      -1.943   0.980  -0.096  1.00  0.00     0.035 C 
ATOM     23  C   UNL     1      -2.504   0.638  -1.618  1.00  0.00    -0.029 C 
ATOM     24  C   UNL     1      -3.364   1.572   0.426  1.00  0.00    -0.028 A 
ATOM     25  C   UNL     1      -3.328   1.899  -1.825  1.00  0.00    -0.026 C 
ATOM     26  C   UNL     1      -4.192   1.631  -0.629  1.00  0.00    -0.042 A 
ATOM     27  C   UNL     1      -3.942   1.200   1.639  1.00  0.00    -0.057 A 
ATOM     28  C   UNL     1      -5.419   0.976  -0.617  1.00  0.00    -0.049 A 
ATOM     29  C   UNL     1      -5.221   0.651   1.687  1.00  0.00    -0.052 A 
ATOM     30  C   UNL     1      -5.910   0.340   0.519  1.00  0.00     0.001 A 
BRANCH  30  31
ATOM     31  C   UNL     1      -6.579  -0.967   0.410  1.00  0.00     0.074 A 
ATOM     32  C   UNL     1      -7.596  -1.346   1.267  1.00  0.00    -0.014 A 
ATOM     33  N   UNL     1      -6.095  -1.950  -0.389  1.00  0.00    -0.236 NA
ATOM     34  C   UNL     1      -8.485  -2.279   0.792  1.00  0.00     0.041 A 
ATOM     35  C   UNL     1      -6.920  -2.925  -0.793  1.00  0.00     0.116 A 
ATOM     36  C   UNL     1      -9.708  -2.561   1.605  1.00  0.00    -0.022 C 
ATOM     37  N   UNL     1      -8.107  -3.129  -0.194  1.00  0.00    -0.242 NA
ENDBRANCH  30  31
ENDBRANCH   8  22
TORSDOF 4

