
     RDKit          3D

 36 40  0  0  0  0  0  0  0  0999 V2000
   -2.4696    1.6760   -1.9120 C   0  0  0  0  0  0  0  0  0  0  0  0
   -3.1098    1.9497   -0.9751 C   0  0  0  0  0  0  0  0  0  0  0  0
   -3.1939    3.4548   -0.7493 C   0  0  0  0  0  0  0  0  0  0  0  0
   -2.2362    1.5028    0.3659 C   0  0  1  0  0  0  0  0  0  0  0  0
   -3.5792    1.3135    1.2521 C   0  0  0  0  0  0  0  0  0  0  0  0
   -4.1470    2.4795    1.7029 C   0  0  0  0  0  0  0  0  0  0  0  0
   -5.4397    2.3965    2.2104 C   0  0  0  0  0  0  0  0  0  0  0  0
   -6.2147    1.2927    1.8720 C   0  0  0  0  0  0  0  0  0  0  0  0
   -7.5588    1.3963    1.6522 F   0  0  0  0  0  0  0  0  0  0  0  0
   -5.5270    0.1114    1.6169 C   0  0  0  0  0  0  0  0  0  0  0  0
   -4.1590    0.1161    1.3607 C   0  0  0  0  0  0  0  0  0  0  0  0
   -3.4199   -1.1455    1.6908 C   0  0  0  0  0  0  0  0  0  0  0  0
   -2.0020   -0.8604    1.2056 C   0  0  0  0  0  0  0  0  0  0  0  0
   -2.1311   -0.0891   -0.0659 C   0  0  2  0  0  0  0  0  0  0  0  0
   -0.8678   -0.1104   -0.8946 C   0  0  0  0  0  0  0  0  0  0  0  0
    0.3633   -0.3514   -0.0474 C   0  0  0  0  0  0  0  0  0  0  0  0
    1.5330    0.2128   -0.6690 N   0  0  0  0  0  0  0  0  0  0  0  0
    1.2722    1.4218   -1.4045 C   0  0  0  0  0  0  0  0  0  0  0  0
    2.2760   -0.7246   -1.4692 C   0  0  0  0  0  0  0  0  0  0  0  0
    3.2493   -1.4304   -0.5645 C   0  0  0  0  0  0  0  0  0  0  0  0
    3.5721   -0.4991    0.5831 C   0  0  0  0  0  0  0  0  0  0  0  0
    5.0529   -0.3952    0.6898 C   0  0  0  0  0  0  0  0  0  0  0  0
    5.9194   -1.4146    0.5341 N   0  0  0  0  0  0  0  0  0  0  0  0
    7.1658   -0.9289    0.3421 C   0  0  0  0  0  0  0  0  0  0  0  0
    8.2404   -1.4996   -0.3163 C   0  0  0  0  0  0  0  0  0  0  0  0
    9.3300   -0.7247   -0.6965 C   0  0  0  0  0  0  0  0  0  0  0  0
    9.3676    0.5926   -0.2708 C   0  0  0  0  0  0  0  0  0  0  0  0
    8.2050    1.1810    0.1775 C   0  0  0  0  0  0  0  0  0  0  0  0
    7.0640    0.4518    0.4099 C   0  0  0  0  0  0  0  0  0  0  0  0
    5.7835    0.7309    0.7476 N   0  0  0  0  0  0  0  0  0  0  0  0
   -3.1960   -0.4047   -0.8720 O   0  0  0  0  0  0  0  0  0  0  0  0
   -3.0765   -1.4751   -1.7180 C   0  0  0  0  0  0  0  0  0  0  0  0
   -1.9882   -2.1157   -1.8278 O   0  0  0  0  0  0  0  0  0  0  0  0
   -4.2533   -2.0364   -2.4272 C   0  0  0  0  0  0  0  0  0  0  0  0
   -4.4292   -3.5532   -2.1370 C   0  0  0  0  0  0  0  0  0  0  0  0
   -5.3956   -2.5212   -1.6322 C   0  0  0  0  0  0  0  0  0  0  0  0
  1  2  1  0
  2  3  1  0
  4  2  1  6
  4  5  1  0
  5  6  2  0
  6  7  1  0
  7  8  2  0
  8  9  1  0
  8 10  1  0
 10 11  2  0
 11 12  1  0
 12 13  1  0
 13 14  1  0
 14 15  1  6
 15 16  1  0
 16 17  1  0
 17 18  1  0
 17 19  1  0
 19 20  1  0
 20 21  1  0
 21 22  1  0
 22 23  2  0
 23 24  1  0
 24 25  2  0
 25 26  1  0
 26 27  2  0
 27 28  1  0
 28 29  2  0
 29 30  1  0
 14 31  1  0
 31 32  1  0
 32 33  2  0
 32 34  1  0
 34 35  1  0
 35 36  1  0
 14  4  1  0
 30 22  1  0
 36 34  1  0
 11  5  1  0
 29 24  1  0
M  END
>  <zinc_id>  (1) 
ZINC000003942155

>  <smiles>  (1) 
CC(C)[C@H]1c2ccc(F)cc2CC[C@@]1(CCN(C)CCCc1nc2ccccc2[nH]1)OC(=O)C1CC1

$$$$
