
     RDKit          3D

 37 40  0  0  0  0  0  0  0  0999 V2000
    3.5266   -4.0007    0.3494 C   0  0  0  0  0  0  0  0  0  0  0  0
    3.3686   -4.1551    0.0677 C   0  0  0  0  0  0  0  0  0  0  0  0
    2.5493   -5.1835    0.7645 C   0  0  0  0  0  0  0  0  0  0  0  0
    4.2617   -4.7213   -0.9223 N   0  0  0  0  0  0  0  0  0  0  0  0
    2.5714   -3.1140   -0.6168 C   0  0  0  0  0  0  0  0  0  0  0  0
    2.3477   -3.1417   -1.8645 O   0  0  0  0  0  0  0  0  0  0  0  0
    2.0927   -1.9241    0.0334 N   0  0  0  0  0  0  0  0  0  0  0  0
    2.5769   -0.5828   -0.6522 C   0  0  2  0  0  0  0  0  0  0  0  0
    2.2530    0.3098    0.6938 C   0  0  0  0  0  0  0  0  0  0  0  0
    3.4572    0.1156    1.3949 O   0  0  0  0  0  0  0  0  0  0  0  0
    4.5624    0.4993    0.6202 C   0  0  0  0  0  0  0  0  0  0  0  0
    4.9050    1.9230    0.9064 C   0  0  0  0  0  0  0  0  0  0  0  0
    6.1697    2.3834    0.5618 C   0  0  0  0  0  0  0  0  0  0  0  0
    6.4990    3.7254    0.7067 C   0  0  0  0  0  0  0  0  0  0  0  0
    5.5589    4.5018    1.3689 C   0  0  0  0  0  0  0  0  0  0  0  0
    4.2301    4.1512    1.2339 C   0  0  0  0  0  0  0  0  0  0  0  0
    3.8749    2.8544    0.8926 C   0  0  0  0  0  0  0  0  0  0  0  0
    1.1547   -0.2255   -1.3285 C   0  0  0  0  0  0  0  0  0  0  0  0
    1.1657    1.0050   -1.6301 O   0  0  0  0  0  0  0  0  0  0  0  0
   -0.0054   -0.7460   -0.7695 N   0  0  0  0  0  0  0  0  0  0  0  0
   -0.9625   -1.3963   -1.6600 C   0  0  0  0  0  0  0  0  0  0  0  0
   -2.0770   -0.4299   -2.0303 C   0  0  0  0  0  0  0  0  0  0  0  0
   -2.6373    0.1901   -0.7787 C   0  0  0  0  0  0  0  0  0  0  0  0
   -3.3102   -0.8641    0.0598 C   0  0  0  0  0  0  0  0  0  0  0  0
   -4.5103   -0.2174    0.5495 N   0  0  0  0  0  0  0  0  0  0  0  0
   -5.3585   -0.4554    2.0305 S   0  0  0  0  0  0  0  0  0  0  0  0
   -4.6503   -1.8977    2.8075 C   0  0  0  0  0  0  0  0  0  0  0  0
   -6.8115   -0.7218    1.7075 O   0  0  0  0  0  0  0  0  0  0  0  0
   -5.2204    0.7355    2.9411 O   0  0  0  0  0  0  0  0  0  0  0  0
   -4.8532    0.7865   -0.4055 C   0  0  0  0  0  0  0  0  0  0  0  0
   -6.0759    1.2536   -0.8703 C   0  0  0  0  0  0  0  0  0  0  0  0
   -6.1022    2.3305   -1.7314 C   0  0  0  0  0  0  0  0  0  0  0  0
   -4.9128    3.0169   -1.9242 C   0  0  0  0  0  0  0  0  0  0  0  0
   -3.7466    2.2678   -1.9294 C   0  0  0  0  0  0  0  0  0  0  0  0
   -3.7202    1.1447   -1.1242 C   0  0  0  0  0  0  0  0  0  0  0  0
   -1.5785    0.8356    0.0754 C   0  0  0  0  0  0  0  0  0  0  0  0
   -0.5929   -0.2528    0.4725 C   0  0  0  0  0  0  0  0  0  0  0  0
  1  2  1  0
  2  3  1  0
  2  4  1  0
  2  5  1  0
  5  6  2  0
  5  7  1  0
  8  7  1  1
  8  9  1  0
  9 10  1  0
 10 11  1  0
 11 12  1  0
 12 13  2  0
 13 14  1  0
 14 15  2  0
 15 16  1  0
 16 17  2  0
  8 18  1  0
 18 19  2  0
 18 20  1  0
 20 21  1  0
 21 22  1  0
 22 23  1  0
 23 24  1  0
 24 25  1  0
 25 26  1  0
 26 27  1  0
 26 28  2  0
 26 29  2  0
 25 30  1  0
 30 31  2  0
 31 32  1  0
 32 33  2  0
 33 34  1  0
 34 35  2  0
 23 36  1  0
 36 37  1  0
 17 12  1  0
 37 20  1  0
 35 23  1  0
 35 30  1  0
M  END
>  <zinc_id>  (1) 
ZINC000001543181

>  <smiles>  (1) 
CC(C)(N)C(=O)N[C@H](COCc1ccccc1)C(=O)N1CCC2(CC1)CN(S(C)(=O)=O)c1ccccc12

$$$$
