
     RDKit          3D

 29 32  0  0  0  0  0  0  0  0999 V2000
   -6.1393   -3.7363   -0.4589 C   0  0  0  0  0  0  0  0  0  0  0  0
   -5.2799   -2.5543   -0.8929 C   0  0  0  0  0  0  0  0  0  0  0  0
   -5.9723   -1.3993   -0.5068 O   0  0  0  0  0  0  0  0  0  0  0  0
   -5.6139   -0.1066   -0.8782 C   0  0  0  0  0  0  0  0  0  0  0  0
   -6.4602    0.7031   -1.6272 C   0  0  0  0  0  0  0  0  0  0  0  0
   -6.3984    2.0894   -1.5491 C   0  0  0  0  0  0  0  0  0  0  0  0
   -5.8906    2.6551   -0.3863 C   0  0  0  0  0  0  0  0  0  0  0  0
   -4.9194    1.9112    0.2724 C   0  0  0  0  0  0  0  0  0  0  0  0
   -4.7290    0.5725   -0.0493 C   0  0  0  0  0  0  0  0  0  0  0  0
   -3.5677   -0.1520    0.3748 N   0  0  0  0  0  0  0  0  0  0  0  0
   -2.4684    0.6476    0.7461 N   0  0  0  0  0  0  0  0  0  0  0  0
   -1.3199    0.2629    0.2714 C   0  0  0  0  0  0  0  0  0  0  0  0
   -0.1063    1.0790    0.1590 C   0  0  0  0  0  0  0  0  0  0  0  0
   -0.0806    2.3010   -0.0810 O   0  0  0  0  0  0  0  0  0  0  0  0
    0.9842    0.1745    0.3634 N   0  0  0  0  0  0  0  0  0  0  0  0
    2.3445    0.6225    0.4183 C   0  0  0  0  0  0  0  0  0  0  0  0
    3.4380   -0.0803    0.8042 N   0  0  0  0  0  0  0  0  0  0  0  0
    4.5678    0.5525    0.4725 C   0  0  0  0  0  0  0  0  0  0  0  0
    5.8238   -0.1858    0.2734 C   0  0  0  0  0  0  0  0  0  0  0  0
    5.9039   -1.2721   -0.5893 C   0  0  0  0  0  0  0  0  0  0  0  0
    7.0331   -2.0727   -0.5957 C   0  0  0  0  0  0  0  0  0  0  0  0
    8.2382   -1.4288   -0.3604 C   0  0  0  0  0  0  0  0  0  0  0  0
    8.2127   -0.4054    0.5752 C   0  0  0  0  0  0  0  0  0  0  0  0
    7.0144    0.2525    0.8076 C   0  0  0  0  0  0  0  0  0  0  0  0
    4.5595    1.8675    0.9297 C   0  0  0  0  0  0  0  0  0  0  0  0
    2.8770    2.2042    0.8257 S   0  0  0  0  0  0  0  0  0  0  0  0
    0.4773   -1.1113    0.4183 N   0  0  0  0  0  0  0  0  0  0  0  0
   -0.8220   -1.1098    0.3832 C   0  0  0  0  0  0  0  0  0  0  0  0
   -1.7067   -2.2805    0.6580 C   0  0  0  0  0  0  0  0  0  0  0  0
  1  2  1  0
  2  3  1  0
  3  4  1  0
  4  5  2  0
  5  6  1  0
  6  7  2  0
  7  8  1  0
  8  9  2  0
  9 10  1  0
 10 11  1  0
 11 12  2  0
 12 13  1  0
 13 14  2  0
 13 15  1  0
 15 16  1  0
 16 17  2  0
 17 18  1  0
 18 19  1  0
 19 20  2  0
 20 21  1  0
 21 22  2  0
 22 23  1  0
 23 24  2  0
 18 25  2  0
 25 26  1  0
 15 27  1  0
 27 28  2  0
 28 29  1  0
  9  4  1  0
 28 12  1  0
 26 16  1  0
 24 19  1  0
M  END
>  <zinc_id>  (1) 
ZINC000006631357

>  <smiles>  (1) 
CCOc1ccccc1N/N=C1/C(=O)N(c2nc(-c3ccccc3)cs2)N=C1C

$$$$
