REMARK SMILES CCOC(=O)[C@H]1O[C@@H]1C(=O)N[C@@H](CC(C)C)C(=O)NCCC(C)C
REMARK SMILES IDX 9 1 10 2 11 3 8 4 6 5 7 6 4 7 5 8 3 9 2 10 1 11 12 12 13 13
REMARK SMILES IDX 14 14 15 15 16 16 17 17 18 18 19 19 20 20 21 21 22 22 23 23
REMARK SMILES IDX 24 24
REMARK H PARENT
REMARK Flexibility Score: inf
ROOT
ATOM      1  C   UNL     1      -0.707  -0.124   0.340  1.00  0.00     0.253 C 
ATOM      2  O   UNL     1      -0.200   0.476  -0.584  1.00  0.00    -0.272 OA
ATOM      3  N   UNL     1       0.216  -0.673   1.211  1.00  0.00    -0.342 N 
ENDROOT
BRANCH   1   4
ATOM      4  C   UNL     1      -2.184   0.216   0.899  1.00  0.00     0.174 C 
ATOM      5  C   UNL     1      -2.984  -0.145  -0.560  1.00  0.00     0.191 C 
ATOM      6  O   UNL     1      -2.489   1.412  -0.225  1.00  0.00    -0.347 OA
BRANCH   5   7
ATOM      7  C   UNL     1      -4.470   0.138   0.038  1.00  0.00     0.338 C 
ATOM      8  O   UNL     1      -4.810  -0.496   1.026  1.00  0.00    -0.249 OA
BRANCH   7   9
ATOM      9  O   UNL     1      -5.404   0.600  -0.833  1.00  0.00    -0.464 OA
BRANCH   9  10
ATOM     10  C   UNL     1      -6.455   1.376  -0.254  1.00  0.00     0.089 C 
ATOM     11  C   UNL     1      -5.985   2.795  -0.358  1.00  0.00    -0.031 C 
ENDBRANCH   9  10
ENDBRANCH   7   9
ENDBRANCH   5   7
ENDBRANCH   1   4
BRANCH   3  12
ATOM     12  C   UNL     1       1.320  -1.629   0.615  1.00  0.00     0.108 C 
BRANCH  12  13
ATOM     13  C   UNL     1       0.800  -1.563  -0.940  1.00  0.00    -0.021 C 
BRANCH  13  14
ATOM     14  C   UNL     1       0.083  -2.723  -1.329  1.00  0.00    -0.045 C 
ATOM     15  C   UNL     1      -0.552  -2.404  -2.655  1.00  0.00    -0.063 C 
ATOM     16  C   UNL     1      -0.690  -3.539  -0.405  1.00  0.00    -0.063 C 
ENDBRANCH  13  14
ENDBRANCH  12  13
BRANCH  12  17
ATOM     17  C   UNL     1       2.365  -0.445   0.296  1.00  0.00     0.242 C 
ATOM     18  O   UNL     1       3.205  -0.751  -0.591  1.00  0.00    -0.273 OA
ATOM     19  N   UNL     1       2.572   0.609   1.129  1.00  0.00    -0.354 N 
BRANCH  19  20
ATOM     20  C   UNL     1       3.434   1.683   0.638  1.00  0.00     0.018 C 
BRANCH  20  21
ATOM     21  C   UNL     1       4.296   1.274  -0.525  1.00  0.00    -0.033 C 
BRANCH  21  22
ATOM     22  C   UNL     1       5.742   1.597  -0.305  1.00  0.00    -0.045 C 
ATOM     23  C   UNL     1       6.351   0.541   0.570  1.00  0.00    -0.063 C 
ATOM     24  C   UNL     1       6.545   1.777  -1.553  1.00  0.00    -0.063 C 
ENDBRANCH  21  22
ENDBRANCH  20  21
ENDBRANCH  19  20
ENDBRANCH  12  17
ENDBRANCH   3  12
TORSDOF 11

