REMARK SMILES Cc1ccc([N+](=O)[O-])cc1S(=O)(=O)N(C)C
REMARK SMILES IDX 1 1 2 2 3 3 4 4 5 5 9 6 10 7 11 8 12 9 13 10 14 11 15 12
REMARK SMILES IDX 16 13 6 14 7 15 8 16
REMARK H PARENT
REMARK Flexibility Score: inf
ROOT
ATOM      1  C   UNL     1      -1.181   2.648  -0.155  1.00  0.00    -0.038 C 
ATOM      2  C   UNL     1      -0.042   1.721  -0.048  1.00  0.00    -0.031 A 
ATOM      3  C   UNL     1       1.233   2.164   0.266  1.00  0.00    -0.051 A 
ATOM      4  C   UNL     1       2.323   1.305   0.184  1.00  0.00     0.016 A 
ATOM      5  C   UNL     1       2.026  -0.045   0.310  1.00  0.00     0.270 A 
ATOM      6  C   UNL     1       0.703  -0.469   0.376  1.00  0.00     0.036 A 
ATOM      7  C   UNL     1      -0.323   0.362  -0.017  1.00  0.00     0.092 A 
ENDROOT
BRANCH   7   8
ATOM      8  S   UNL     1      -1.745  -0.224  -0.868  1.00  0.00     0.243 S 
ATOM      9  O   UNL     1      -1.449  -1.505  -1.612  1.00  0.00    -0.207 OA
ATOM     10  O   UNL     1      -2.203   0.833  -1.848  1.00  0.00    -0.207 OA
BRANCH   8  11
ATOM     11  N   UNL     1      -3.040  -0.501   0.247  1.00  0.00    -0.204 NA
ATOM     12  C   UNL     1      -3.535  -1.854   0.119  1.00  0.00     0.002 C 
ATOM     13  C   UNL     1      -2.654  -0.240   1.611  1.00  0.00     0.002 C 
ENDBRANCH   8  11
ENDBRANCH   7   8
BRANCH   5  14
ATOM     14  N   UNL     1       3.075  -1.004   0.482  1.00  0.00     0.062 N 
ATOM     15  O   UNL     1       3.998  -1.111  -0.357  1.00  0.00    -0.258 OA
ATOM     16  O   UNL     1       2.812  -2.080   1.310  1.00  0.00    -0.258 OA
ENDBRANCH   5  14
TORSDOF 3

