
     RDKit          3D

 15 16  0  0  0  0  0  0  0  0999 V2000
    6.1026   -0.1669   -0.6410 N   0  0  0  0  0  0  0  0  0  0  0  0
    4.7091   -0.1498   -0.3319 C   0  0  0  0  0  0  0  0  0  0  0  0
    3.7766    0.7856   -0.6412 N   0  0  0  0  0  0  0  0  0  0  0  0
    2.5605    0.2574   -0.6496 N   0  0  0  0  0  0  0  0  0  0  0  0
    2.2674   -0.3697    0.4887 C   0  0  0  0  0  0  0  0  0  0  0  0
    0.8168   -0.5252    1.4674 S   0  0  0  0  0  0  0  0  0  0  0  0
   -0.6811   -0.2271    0.5857 C   0  0  0  0  0  0  0  0  0  0  0  0
   -0.9411    0.1741   -0.6613 N   0  0  0  0  0  0  0  0  0  0  0  0
   -2.0943    0.8572   -0.7464 C   0  0  0  0  0  0  0  0  0  0  0  0
   -3.1364    0.1546   -0.1486 C   0  0  0  0  0  0  0  0  0  0  0  0
   -4.5402    0.3007   -0.3530 N   0  0  0  0  0  0  0  0  0  0  0  0
   -5.0427    1.2887   -0.8898 O   0  0  0  0  0  0  0  0  0  0  0  0
   -5.3492   -0.7418    0.0603 O   0  0  0  0  0  0  0  0  0  0  0  0
   -2.2669   -0.6353    1.1043 S   0  0  0  0  0  0  0  0  0  0  0  0
    3.8188   -1.0025    0.8696 S   0  0  0  0  0  0  0  0  0  0  0  0
  1  2  1  0
  2  3  2  0
  3  4  1  0
  4  5  2  0
  5  6  1  0
  6  7  1  0
  7  8  2  0
  8  9  1  0
  9 10  2  0
 10 11  1  0
 11 12  2  0
 11 13  1  0
 10 14  1  0
  5 15  1  0
 15  2  1  0
 14  7  1  0
M  CHG  2  11   1  13  -1
M  END
>  <zinc_id>  (1) 
ZINC000008716875

>  <smiles>  (1) 
Nc1nnc(Sc2ncc([N+](=O)[O-])s2)s1

$$$$
