REMARK SMILES CNC(=O)c1cc(Oc2ccc(NC(=O)Nc3ccc(Cl)c(C(F)(F)F)c3)c(F)c2)ccn1
REMARK SMILES IDX 9 1 10 2 11 3 12 4 28 5 29 6 30 7 8 8 7 9 5 10 6 11 33 12
REMARK SMILES IDX 32 13 31 14 3 15 1 16 2 17 4 18 13 19 14 20 15 21 16 22
REMARK SMILES IDX 17 23 18 24 27 25 19 26 22 27 20 28 21 29 23 30 24 31 25 32
REMARK SMILES IDX 26 33
REMARK H PARENT
REMARK Flexibility Score: inf
ROOT
ATOM      1  C   UNL     1      -2.089  -0.306   0.163  1.00  0.00     0.130 A 
ATOM      2  C   UNL     1      -1.738   0.193   1.409  1.00  0.00    -0.017 A 
ATOM      3  C   UNL     1      -0.750   1.158   1.423  1.00  0.00    -0.032 A 
ATOM      4  C   UNL     1      -0.108   1.558   0.265  1.00  0.00     0.079 A 
ATOM      5  C   UNL     1      -0.553   1.145  -0.966  1.00  0.00     0.150 A 
ATOM      6  F   UNL     1      -0.059   1.734  -2.071  1.00  0.00    -0.205 F 
ATOM      7  C   UNL     1      -1.704   0.369  -0.988  1.00  0.00     0.019 A 
ENDROOT
BRANCH   1   8
ATOM      8  O   UNL     1      -3.184  -1.172   0.144  1.00  0.00    -0.457 OA
BRANCH   8   9
ATOM      9  C   UNL     1      -4.449  -0.584   0.062  1.00  0.00     0.131 A 
ATOM     10  C   UNL     1      -6.736  -0.994  -0.641  1.00  0.00     0.131 A 
ATOM     11  C   UNL     1      -5.593  -1.370   0.041  1.00  0.00     0.012 A 
ATOM     12  N   UNL     1      -6.719   0.206  -1.255  1.00  0.00    -0.251 NA
ATOM     13  C   UNL     1      -5.763   1.110  -0.929  1.00  0.00     0.031 A 
ATOM     14  C   UNL     1      -4.619   0.757  -0.245  1.00  0.00    -0.001 A 
BRANCH  10  15
ATOM     15  C   UNL     1      -7.835  -1.941  -0.795  1.00  0.00     0.269 C 
ATOM     16  C   UNL     1      -9.499  -3.252   0.543  1.00  0.00     0.006 C 
ATOM     17  N   UNL     1      -8.849  -2.008   0.209  1.00  0.00    -0.354 N 
ATOM     18  O   UNL     1      -7.605  -3.009  -1.425  1.00  0.00    -0.268 OA
ENDBRANCH  10  15
ENDBRANCH   8   9
ENDBRANCH   1   8
BRANCH   4  19
ATOM     19  N   UNL     1       1.069   2.350   0.450  1.00  0.00    -0.305 N 
ATOM     20  C   UNL     1       2.384   1.807   0.385  1.00  0.00     0.323 C 
ATOM     21  O   UNL     1       2.539   0.822  -0.395  1.00  0.00    -0.248 OA
ATOM     22  N   UNL     1       3.350   1.979   1.418  1.00  0.00    -0.308 N 
BRANCH  22  23
ATOM     23  C   UNL     1       4.659   1.432   1.363  1.00  0.00     0.043 A 
ATOM     24  C   UNL     1       5.737   2.305   1.284  1.00  0.00    -0.037 A 
ATOM     25  C   UNL     1       4.915   0.130   0.957  1.00  0.00    -0.025 A 
ATOM     26  C   UNL     1       6.865   2.017   0.527  1.00  0.00    -0.041 A 
ATOM     27  C   UNL     1       6.103  -0.196   0.316  1.00  0.00     0.076 A 
ATOM     28  C   UNL     1       6.957   0.802  -0.137  1.00  0.00     0.053 A 
ATOM     29  Cl  UNL     1       7.800   0.642  -1.672  1.00  0.00    -0.084 Cl
BRANCH  27  30
ATOM     30  C   UNL     1       6.319  -1.573  -0.165  1.00  0.00     0.417 C 
ATOM     31  F   UNL     1       6.568  -2.477   0.834  1.00  0.00    -0.166 F 
ATOM     32  F   UNL     1       5.206  -2.002  -0.857  1.00  0.00    -0.166 F 
ATOM     33  F   UNL     1       7.381  -1.632  -1.047  1.00  0.00    -0.166 F 
ENDBRANCH  27  30
ENDBRANCH  22  23
ENDBRANCH   4  19
TORSDOF 6

