
     RDKit          3D

 25 28  0  0  0  0  0  0  0  0999 V2000
   -2.7405    4.6920    0.8093 C   0  0  0  0  0  0  0  0  0  0  0  0
   -1.8385    3.8003    0.0167 C   0  0  0  0  0  0  0  0  0  0  0  0
   -0.6367    4.3105   -0.4553 C   0  0  0  0  0  0  0  0  0  0  0  0
    0.4206    3.4219   -0.6069 C   0  0  0  0  0  0  0  0  0  0  0  0
    0.0925    2.1161   -0.8794 C   0  0  0  0  0  0  0  0  0  0  0  0
   -1.1161    1.6056   -0.4251 C   0  0  0  0  0  0  0  0  0  0  0  0
   -1.3088    0.1523   -0.4155 C   0  0  0  0  0  0  0  0  0  0  0  0
   -2.4031   -0.5346   -0.8236 N   0  0  0  0  0  0  0  0  0  0  0  0
   -2.2482   -1.7725   -0.3026 C   0  0  0  0  0  0  0  0  0  0  0  0
   -3.2900   -2.7651    0.0760 C   0  0  0  0  0  0  0  0  0  0  0  0
   -2.7443   -3.6800    1.1496 C   0  0  0  0  0  0  0  0  0  0  0  0
   -3.6631   -3.5379   -1.1782 C   0  0  0  0  0  0  0  0  0  0  0  0
   -4.5418   -2.0922    0.5812 C   0  0  0  0  0  0  0  0  0  0  0  0
   -0.9113   -1.9921   -0.3145 N   0  0  0  0  0  0  0  0  0  0  0  0
   -0.2935   -0.7940   -0.4149 C   0  0  0  0  0  0  0  0  0  0  0  0
    1.0848   -0.4457   -0.0594 C   0  0  0  0  0  0  0  0  0  0  0  0
    1.3027   -0.1570    1.2821 C   0  0  0  0  0  0  0  0  0  0  0  0
    2.5661    0.1856    1.7146 C   0  0  0  0  0  0  0  0  0  0  0  0
    3.6234   -0.2336    0.9249 C   0  0  0  0  0  0  0  0  0  0  0  0
    3.4000   -0.8692   -0.2793 C   0  0  0  0  0  0  0  0  0  0  0  0
    2.1235   -0.9304   -0.8183 C   0  0  0  0  0  0  0  0  0  0  0  0
    4.6444   -1.2283   -0.7575 O   0  0  0  0  0  0  0  0  0  0  0  0
    5.5525   -1.3179    0.3338 C   0  0  0  0  0  0  0  0  0  0  0  0
    4.9692   -0.3944    1.2416 O   0  0  0  0  0  0  0  0  0  0  0  0
   -2.0438    2.4608    0.0341 N   0  0  0  0  0  0  0  0  0  0  0  0
  1  2  1  0
  2  3  2  0
  3  4  1  0
  4  5  2  0
  5  6  1  0
  6  7  1  0
  7  8  1  0
  8  9  2  0
  9 10  1  0
 10 11  1  0
 10 12  1  0
 10 13  1  0
  9 14  1  0
 14 15  1  0
 15 16  1  0
 16 17  2  0
 17 18  1  0
 18 19  2  0
 19 20  1  0
 20 21  2  0
 20 22  1  0
 22 23  1  0
 23 24  1  0
  6 25  2  0
 25  2  1  0
 15  7  2  0
 21 16  1  0
 24 19  1  0
M  END
>  <zinc_id>  (1) 
ZINC000016052825

>  <smiles>  (1) 
Cc1cccc(-c2nc(C(C)(C)C)[nH]c2-c2ccc3c(c2)OCO3)n1

$$$$
