REMARK SMILES CCN1C(C)(C)CC(Oc2ccc(C(=O)Nc3ccc(NC(=O)Nc4cc(C(C)(C)C)on4)cc3)nc2)CC1(C)C
REMARK SMILES IDX 14 1 15 2 16 3 13 4 10 5 11 6 37 7 12 8 36 9 9 10 8 11 3 12
REMARK SMILES IDX 4 13 39 14 5 15 6 16 7 17 38 18 40 19 41 20 2 21 1 22 17 23
REMARK SMILES IDX 18 24 35 25 19 26 34 27 20 28 21 29 22 30 23 31 24 32 25 33
REMARK SMILES IDX 26 34 33 35 27 36 32 37 28 38 29 39 30 40 31 41
REMARK H PARENT
REMARK Flexibility Score: inf
ROOT
ATOM      1  C   UNL     1      -0.981  -2.335   0.357  1.00  0.00     0.274 C 
ATOM      2  O   UNL     1      -0.492  -1.973   1.470  1.00  0.00    -0.267 OA
ATOM      3  N   UNL     1      -0.062  -2.585  -0.685  1.00  0.00    -0.321 N 
ENDROOT
BRANCH   1   4
ATOM      4  C   UNL     1      -2.370  -1.915   0.129  1.00  0.00     0.128 A 
ATOM      5  C   UNL     1      -4.529  -0.623  -1.051  1.00  0.00     0.138 A 
ATOM      6  C   UNL     1      -4.424  -1.986  -1.101  1.00  0.00    -0.016 A 
ATOM      7  C   UNL     1      -3.518   0.083  -0.420  1.00  0.00     0.070 A 
ATOM      8  C   UNL     1      -3.174  -2.527  -0.825  1.00  0.00    -0.027 A 
ATOM      9  N   UNL     1      -2.638  -0.605   0.350  1.00  0.00    -0.247 NA
BRANCH   5  10
ATOM     10  O   UNL     1      -5.558   0.113  -1.599  1.00  0.00    -0.489 OA
BRANCH  10  11
ATOM     11  C   UNL     1      -6.908  -0.141  -1.310  1.00  0.00     0.102 C 
ATOM     12  N   UNL     1      -6.898   1.104   0.955  1.00  0.00    -0.293 NA
ATOM     13  C   UNL     1      -7.767   1.794   0.043  1.00  0.00     0.019 C 
ATOM     14  C   UNL     1      -7.253  -0.272   1.176  1.00  0.00     0.019 C 
ATOM     15  C   UNL     1      -9.168   1.969   0.560  1.00  0.00    -0.047 C 
ATOM     16  C   UNL     1      -7.191   3.191  -0.154  1.00  0.00    -0.047 C 
ATOM     17  C   UNL     1      -7.763   1.094  -1.289  1.00  0.00     0.002 C 
ATOM     18  C   UNL     1      -7.111  -1.030  -0.115  1.00  0.00     0.002 C 
ATOM     19  C   UNL     1      -6.299  -0.814   2.233  1.00  0.00    -0.047 C 
ATOM     20  C   UNL     1      -8.653  -0.460   1.690  1.00  0.00    -0.047 C 
BRANCH  12  21
ATOM     21  C   UNL     1      -6.615   1.836   2.161  1.00  0.00    -0.004 C 
ATOM     22  C   UNL     1      -5.144   2.233   2.100  1.00  0.00    -0.052 C 
ENDBRANCH  12  21
ENDBRANCH  10  11
ENDBRANCH   5  10
ENDBRANCH   1   4
BRANCH   3  23
ATOM     23  C   UNL     1       1.225  -1.959  -0.767  1.00  0.00     0.041 A 
ATOM     24  C   UNL     1       1.834  -1.456   0.375  1.00  0.00    -0.036 A 
ATOM     25  C   UNL     1       1.533  -1.303  -1.952  1.00  0.00    -0.036 A 
ATOM     26  C   UNL     1       2.620  -0.314   0.324  1.00  0.00    -0.036 A 
ATOM     27  C   UNL     1       2.266  -0.141  -1.998  1.00  0.00    -0.036 A 
ATOM     28  C   UNL     1       2.649   0.474  -0.813  1.00  0.00     0.043 A 
BRANCH  28  29
ATOM     29  N   UNL     1       3.737   1.398  -0.923  1.00  0.00    -0.308 N 
ATOM     30  C   UNL     1       5.060   1.012  -0.582  1.00  0.00     0.324 C 
ATOM     31  O   UNL     1       5.176   0.260   0.432  1.00  0.00    -0.248 OA
ATOM     32  N   UNL     1       6.195   1.320  -1.401  1.00  0.00    -0.289 N 
BRANCH  32  33
ATOM     33  C   UNL     1       7.499   0.840  -1.053  1.00  0.00     0.177 A 
ATOM     34  C   UNL     1       8.439   1.465  -0.245  1.00  0.00     0.026 A 
ATOM     35  N   UNL     1       7.842  -0.470  -1.000  1.00  0.00    -0.062 NA
ATOM     36  C   UNL     1       9.099   0.474   0.472  1.00  0.00     0.144 A 
ATOM     37  O   UNL     1       8.798  -0.646  -0.127  1.00  0.00    -0.359 OA
BRANCH  36  38
ATOM     38  C   UNL     1       9.947   0.666   1.690  1.00  0.00     0.023 C 
ATOM     39  C   UNL     1       9.950   2.143   2.041  1.00  0.00    -0.053 C 
ATOM     40  C   UNL     1      11.345   0.143   1.476  1.00  0.00    -0.053 C 
ATOM     41  C   UNL     1       9.301  -0.058   2.865  1.00  0.00    -0.053 C 
ENDBRANCH  36  38
ENDBRANCH  32  33
ENDBRANCH  28  29
ENDBRANCH   3  23
TORSDOF 8

