
     RDKit          3D

 34 37  0  0  0  0  0  0  0  0999 V2000
   -3.1635    0.8543   -3.3817 C   0  0  0  0  0  0  0  0  0  0  0  0
   -3.5376    0.5904   -1.9946 N   0  0  0  0  0  0  0  0  0  0  0  0
   -4.8750    1.0348   -1.6122 C   0  0  0  0  0  0  0  0  0  0  0  0
   -2.5028    0.8457   -1.0369 C   0  0  0  0  0  0  0  0  0  0  0  0
   -2.3575    2.0695   -0.7376 O   0  0  0  0  0  0  0  0  0  0  0  0
   -2.1538   -0.1350    0.0062 C   0  0  0  0  0  0  0  0  0  0  0  0
   -0.7752    0.0967    0.5643 C   0  0  0  0  0  0  0  0  0  0  0  0
   -0.4957    1.5231    0.9197 C   0  0  0  0  0  0  0  0  0  0  0  0
    0.7258    2.0131    0.3489 N   0  0  0  0  0  0  0  0  0  0  0  0
    1.2231    1.2617   -0.7576 C   0  0  0  0  0  0  0  0  0  0  0  0
    2.2755    0.2520   -0.4154 C   0  0  0  0  0  0  0  0  0  0  0  0
    3.2824    0.7430    0.5873 C   0  0  0  0  0  0  0  0  0  0  0  0
    2.9939    0.1517    1.8269 O   0  0  0  0  0  0  0  0  0  0  0  0
    4.6764    0.4212    0.2263 C   0  0  0  0  0  0  0  0  0  0  0  0
    5.1410    0.8030   -1.0205 C   0  0  0  0  0  0  0  0  0  0  0  0
    6.4679    0.6659   -1.3369 C   0  0  0  0  0  0  0  0  0  0  0  0
    7.2925   -0.0535   -0.4963 C   0  0  0  0  0  0  0  0  0  0  0  0
    9.0254    0.1527   -0.7178 Cl  0  0  0  0  0  0  0  0  0  0  0  0
    6.7838   -0.6693    0.6263 C   0  0  0  0  0  0  0  0  0  0  0  0
    5.4687   -0.4243    0.9725 C   0  0  0  0  0  0  0  0  0  0  0  0
    3.1007    2.2333    0.7393 C   0  0  0  0  0  0  0  0  0  0  0  0
    1.7045    2.4431    1.2950 C   0  0  0  0  0  0  0  0  0  0  0  0
   -2.1362   -1.5330   -0.5268 C   0  0  0  0  0  0  0  0  0  0  0  0
   -1.7712   -2.5090    0.3927 C   0  0  0  0  0  0  0  0  0  0  0  0
   -1.7228   -3.8294    0.0404 C   0  0  0  0  0  0  0  0  0  0  0  0
   -2.3759   -4.2422   -1.0892 C   0  0  0  0  0  0  0  0  0  0  0  0
   -2.8940   -3.2906   -1.9314 C   0  0  0  0  0  0  0  0  0  0  0  0
   -2.9156   -1.9490   -1.5769 C   0  0  0  0  0  0  0  0  0  0  0  0
   -3.1980   -0.1140    1.0775 C   0  0  0  0  0  0  0  0  0  0  0  0
   -3.4755    1.0897    1.6790 C   0  0  0  0  0  0  0  0  0  0  0  0
   -4.6478    1.2342    2.3814 C   0  0  0  0  0  0  0  0  0  0  0  0
   -5.6864    0.3372    2.1813 C   0  0  0  0  0  0  0  0  0  0  0  0
   -5.3810   -0.9202    1.7162 C   0  0  0  0  0  0  0  0  0  0  0  0
   -4.0961   -1.1467    1.2566 C   0  0  0  0  0  0  0  0  0  0  0  0
  1  2  1  0
  2  3  1  0
  2  4  1  0
  4  5  2  0
  4  6  1  0
  6  7  1  0
  7  8  1  0
  8  9  1  0
  9 10  1  0
 10 11  1  0
 11 12  1  0
 12 13  1  0
 12 14  1  0
 14 15  2  0
 15 16  1  0
 16 17  2  0
 17 18  1  0
 17 19  1  0
 19 20  2  0
 12 21  1  0
 21 22  1  0
  6 23  1  0
 23 24  2  0
 24 25  1  0
 25 26  2  0
 26 27  1  0
 27 28  2  0
  6 29  1  0
 29 30  2  0
 30 31  1  0
 31 32  2  0
 32 33  1  0
 33 34  2  0
 22  9  1  0
 28 23  1  0
 34 29  1  0
 20 14  1  0
M  END
>  <zinc_id>  (1) 
ZINC000000537928

>  <smiles>  (1) 
CN(C)C(=O)C(CCN1CCC(O)(c2ccc(Cl)cc2)CC1)(c1ccccc1)c1ccccc1

$$$$
