
     RDKit          3D

 28 30  0  0  0  0  0  0  0  0999 V2000
    7.3076    1.6620    0.7123 C   0  0  0  0  0  0  0  0  0  0  0  0
    6.1433    0.7192    0.4306 C   0  0  0  0  0  0  0  0  0  0  0  0
    5.9282   -0.0906    1.6773 C   0  0  0  0  0  0  0  0  0  0  0  0
    4.9678   -1.2230    1.5142 C   0  0  0  0  0  0  0  0  0  0  0  0
    5.4427   -2.3153    0.6057 C   0  0  0  0  0  0  0  0  0  0  0  0
    6.2583   -1.8278   -0.5567 C   0  0  0  0  0  0  0  0  0  0  0  0
    5.4557   -1.8299   -1.8384 C   0  0  0  0  0  0  0  0  0  0  0  0
    3.5746   -0.8095    1.2784 C   0  0  0  0  0  0  0  0  0  0  0  0
    2.6731   -1.5760    1.7344 O   0  0  0  0  0  0  0  0  0  0  0  0
    3.1641    0.0501    0.2135 N   0  0  0  0  0  0  0  0  0  0  0  0
    2.0410   -0.2732   -0.6602 C   0  0  0  0  0  0  0  0  0  0  0  0
    0.8677    0.5994   -0.4006 C   0  0  0  0  0  0  0  0  0  0  0  0
    0.1249    0.4700    0.7649 C   0  0  0  0  0  0  0  0  0  0  0  0
   -1.2583    0.5903    0.7523 C   0  0  0  0  0  0  0  0  0  0  0  0
   -1.9275    0.9597   -0.3975 C   0  0  0  0  0  0  0  0  0  0  0  0
   -1.1425    1.4607   -1.4276 C   0  0  0  0  0  0  0  0  0  0  0  0
   -2.0660    1.9285   -2.3537 C   0  0  0  0  0  0  0  0  0  0  0  0
   -3.1887    1.1989   -2.1460 N   0  0  0  0  0  0  0  0  0  0  0  0
   -3.1745    0.7580   -0.8892 N   0  0  0  0  0  0  0  0  0  0  0  0
   -4.3152    0.4830   -0.0725 C   0  0  0  0  0  0  0  0  0  0  0  0
   -5.3282    1.4133    0.1205 C   0  0  0  0  0  0  0  0  0  0  0  0
   -6.6575    1.0130    0.1710 C   0  0  0  0  0  0  0  0  0  0  0  0
   -6.9818   -0.3191    0.3530 C   0  0  0  0  0  0  0  0  0  0  0  0
   -5.9886   -1.2520    0.2225 C   0  0  0  0  0  0  0  0  0  0  0  0
   -4.6725   -0.8359    0.1820 C   0  0  0  0  0  0  0  0  0  0  0  0
   -3.6990   -1.8122    0.2106 O   0  0  0  0  0  0  0  0  0  0  0  0
   -3.7812   -2.7850    1.2424 C   0  0  0  0  0  0  0  0  0  0  0  0
    0.2324    1.2616   -1.4432 C   0  0  0  0  0  0  0  0  0  0  0  0
  1  2  1  0
  2  3  1  0
  3  4  1  0
  4  5  1  0
  5  6  1  0
  6  7  1  0
  4  8  1  0
  8  9  2  0
  8 10  1  0
 10 11  1  0
 11 12  1  0
 12 13  2  0
 13 14  1  0
 14 15  2  0
 15 16  1  0
 16 17  1  0
 17 18  2  0
 18 19  1  0
 19 20  1  0
 20 21  2  0
 21 22  1  0
 22 23  2  0
 23 24  1  0
 24 25  2  0
 25 26  1  0
 26 27  1  0
 16 28  2  0
 28 12  1  0
 19 15  1  0
 25 20  1  0
M  END
>  <zinc_id>  (1) 
ZINC000043020375

>  <smiles>  (1) 
CCCC(CCC)C(=O)NCc1ccc2c(cnn2-c2ccccc2OC)c1

$$$$
