REMARK SMILES c1cc(-c2cnn3cc(-c4ccc(N5CCNCC5)cc4)cnc23)c2cccnc2c1
REMARK SMILES IDX 5 1 6 2 7 3 8 4 9 5 22 6 23 7 24 8 4 9 3 10 2 11 25 12 1 13
REMARK SMILES IDX 30 14 26 15 31 16 29 17 27 18 28 19 10 20 11 21 21 22 12 23
REMARK SMILES IDX 20 24 13 25 14 26 15 27 19 28 16 29 18 30 17 31
REMARK H PARENT
REMARK Flexibility Score: inf
ROOT
ATOM      1  C   UNL     1      -2.580   0.316   1.776  1.00  0.00     0.060 A 
ATOM      2  N   UNL     1      -1.371  -0.132   2.131  1.00  0.00    -0.174 NA
ATOM      3  N   UNL     1      -0.720  -0.441   1.010  1.00  0.00    -0.221 N 
ATOM      4  C   UNL     1       0.542  -0.854   0.737  1.00  0.00     0.040 A 
ATOM      5  C   UNL     1       1.117  -0.571  -0.491  1.00  0.00     0.018 A 
ATOM      6  C   UNL     1       0.229  -0.461  -1.555  1.00  0.00     0.039 A 
ATOM      7  N   UNL     1      -1.098  -0.349  -1.320  1.00  0.00    -0.236 NA
ATOM      8  C   UNL     1      -1.548  -0.354  -0.041  1.00  0.00     0.162 A 
ATOM      9  C   UNL     1      -2.785  -0.018   0.443  1.00  0.00     0.047 A 
ENDROOT
BRANCH   9  10
ATOM     10  C   UNL     1      -4.082  -0.328  -0.174  1.00  0.00    -0.004 A 
ATOM     11  C   UNL     1      -4.301  -1.512  -0.865  1.00  0.00    -0.053 A 
ATOM     12  C   UNL     1      -5.212   0.444   0.066  1.00  0.00     0.008 A 
ATOM     13  C   UNL     1      -5.540  -2.122  -0.705  1.00  0.00    -0.059 A 
ATOM     14  C   UNL     1      -6.480  -0.085   0.129  1.00  0.00     0.071 A 
ATOM     15  C   UNL     1      -5.038   1.738   0.495  1.00  0.00    -0.051 A 
ATOM     16  C   UNL     1      -6.624  -1.426  -0.190  1.00  0.00    -0.036 A 
ATOM     17  N   UNL     1      -7.463   0.447   0.898  1.00  0.00    -0.256 NA
ATOM     18  C   UNL     1      -6.119   2.347   1.119  1.00  0.00    -0.043 A 
ATOM     19  C   UNL     1      -7.181   1.585   1.574  1.00  0.00     0.028 A 
ENDBRANCH   9  10
BRANCH   5  20
ATOM     20  C   UNL     1       2.545  -0.275  -0.640  1.00  0.00    -0.015 A 
ATOM     21  C   UNL     1       3.392  -0.885   0.275  1.00  0.00    -0.052 A 
ATOM     22  C   UNL     1       2.848   1.024  -1.027  1.00  0.00    -0.052 A 
ATOM     23  C   UNL     1       4.663  -0.373   0.470  1.00  0.00    -0.038 A 
ATOM     24  C   UNL     1       4.130   1.511  -0.827  1.00  0.00    -0.038 A 
ATOM     25  C   UNL     1       5.067   0.841  -0.068  1.00  0.00     0.037 A 
BRANCH  25  26
ATOM     26  N   UNL     1       6.444   1.049  -0.408  1.00  0.00    -0.369 N 
ATOM     27  C   UNL     1       7.353   1.157   0.731  1.00  0.00     0.030 C 
ATOM     28  C   UNL     1       6.936   0.243  -1.522  1.00  0.00     0.030 C 
ATOM     29  C   UNL     1       7.698  -0.239   1.181  1.00  0.00     0.013 C 
ATOM     30  C   UNL     1       7.103  -1.166  -0.965  1.00  0.00     0.013 C 
ATOM     31  N   UNL     1       8.074  -1.111   0.100  1.00  0.00    -0.313 NA
ENDBRANCH  25  26
ENDBRANCH   5  20
TORSDOF 3

