REMARK SMILES CO[C@@H](C(=O)N1Cc2[nH]nc(NC(=O)c3ccc(N4CCN(C)CC4)cc3)c2C1)c1ccccc1
REMARK SMILES IDX 6 1 7 2 8 3 9 4 10 5 11 6 28 7 29 8 4 9 5 10 3 11 2 12 1 13
REMARK SMILES IDX 30 14 31 15 35 16 32 17 34 18 33 19 12 20 13 21 14 22 15 23
REMARK SMILES IDX 16 24 27 25 17 26 26 27 18 28 19 29 20 30 25 31 21 32 24 33
REMARK SMILES IDX 22 34 23 35
REMARK H PARENT
REMARK Flexibility Score: inf
ROOT
ATOM      1  N   UNL     1       3.897  -0.333  -0.327  1.00  0.00    -0.330 N 
ATOM      2  C   UNL     1       4.258   0.766  -1.231  1.00  0.00     0.063 C 
ATOM      3  C   UNL     1       2.890   1.297  -1.534  1.00  0.00     0.062 A 
ATOM      4  N   UNL     1       2.055   2.310  -1.200  1.00  0.00    -0.278 N 
ATOM      5  N   UNL     1       0.792   1.964  -1.443  1.00  0.00    -0.157 NA
ATOM      6  C   UNL     1       0.821   0.641  -1.742  1.00  0.00     0.160 A 
ATOM      7  C   UNL     1       2.106   0.153  -1.629  1.00  0.00     0.039 A 
ATOM      8  C   UNL     1       2.884  -1.026  -1.133  1.00  0.00     0.052 C 
ENDROOT
BRANCH   1   9
ATOM      9  C   UNL     1       3.533  -0.038   1.036  1.00  0.00     0.256 C 
ATOM     10  O   UNL     1       3.386   1.117   1.439  1.00  0.00    -0.271 OA
BRANCH   9  11
ATOM     11  C   UNL     1       4.203  -1.119   2.064  1.00  0.00     0.161 C 
BRANCH  11  12
ATOM     12  O   UNL     1       4.034  -0.242   3.316  1.00  0.00    -0.367 OA
ATOM     13  C   UNL     1       2.965  -0.218   3.468  1.00  0.00     0.037 C 
ENDBRANCH  11  12
BRANCH  11  14
ATOM     14  C   UNL     1       5.717  -0.574   1.786  1.00  0.00    -0.010 A 
ATOM     15  C   UNL     1       5.891   0.769   1.812  1.00  0.00    -0.056 A 
ATOM     16  C   UNL     1       6.333  -1.300   0.772  1.00  0.00    -0.056 A 
ATOM     17  C   UNL     1       7.161   1.247   1.512  1.00  0.00    -0.062 A 
ATOM     18  C   UNL     1       7.524  -0.775   0.285  1.00  0.00    -0.062 A 
ATOM     19  C   UNL     1       7.803   0.573   0.480  1.00  0.00    -0.062 A 
ENDBRANCH  11  14
ENDBRANCH   9  11
ENDBRANCH   1   9
BRANCH   6  20
ATOM     20  N   UNL     1      -0.332  -0.098  -2.166  1.00  0.00    -0.305 N 
ATOM     21  C   UNL     1      -1.640   0.428  -1.906  1.00  0.00     0.256 C 
ATOM     22  O   UNL     1      -1.654   1.287  -0.970  1.00  0.00    -0.269 OA
BRANCH  21  23
ATOM     23  C   UNL     1      -2.868  -0.314  -2.232  1.00  0.00     0.040 A 
ATOM     24  C   UNL     1      -3.237  -1.466  -1.544  1.00  0.00    -0.047 A 
ATOM     25  C   UNL     1      -3.968   0.305  -2.823  1.00  0.00    -0.047 A 
ATOM     26  C   UNL     1      -4.512  -1.590  -0.995  1.00  0.00    -0.038 A 
ATOM     27  C   UNL     1      -5.241   0.202  -2.255  1.00  0.00    -0.038 A 
ATOM     28  C   UNL     1      -5.459  -0.578  -1.123  1.00  0.00     0.037 A 
BRANCH  28  29
ATOM     29  N   UNL     1      -6.223  -0.111  -0.003  1.00  0.00    -0.369 N 
ATOM     30  C   UNL     1      -6.499   1.297   0.070  1.00  0.00     0.031 C 
ATOM     31  C   UNL     1      -6.251  -0.958   1.178  1.00  0.00     0.031 C 
ATOM     32  C   UNL     1      -7.167   1.760   1.305  1.00  0.00     0.016 C 
ATOM     33  C   UNL     1      -6.663  -0.185   2.422  1.00  0.00     0.016 C 
ATOM     34  N   UNL     1      -7.785   0.686   2.076  1.00  0.00    -0.303 NA
ATOM     35  C   UNL     1      -8.753  -0.016   1.236  1.00  0.00    -0.013 C 
ENDBRANCH  28  29
ENDBRANCH  21  23
ENDBRANCH   6  20
TORSDOF 7

