REMARK SMILES CCC(C)(C)C(=O)O[C@H]1C[C@@H](C)C=C2C=C[C@H](C)[C@H](CC[C@@H]3C[C@@H](O)CC(=O)O3)[C@H]21
REMARK SMILES IDX 9 1 10 2 11 3 12 4 13 5 14 6 15 7 16 8 17 9 18 10 19 11
REMARK SMILES IDX 30 12 8 13 6 14 7 15 3 16 4 17 5 18 2 19 1 20 20 21 21 22
REMARK SMILES IDX 22 23 23 24 29 25 24 26 27 27 25 28 26 29 28 30
REMARK H PARENT
REMARK Flexibility Score: inf
ROOT
ATOM      1  C   UNL     1      -2.257  -0.871   0.255  1.00  0.00     0.109 C 
ATOM      2  C   UNL     1      -2.031  -1.651  -1.179  1.00  0.00    -0.009 C 
ATOM      3  C   UNL     1      -2.873  -2.792  -0.326  1.00  0.00    -0.022 C 
ATOM      4  C   UNL     1      -2.563  -3.987  -1.391  1.00  0.00    -0.059 C 
ATOM      5  C   UNL     1      -1.672  -3.209   0.640  1.00  0.00    -0.078 C 
ATOM      6  C   UNL     1      -0.948  -2.371   1.270  1.00  0.00    -0.045 C 
ATOM      7  C   UNL     1       0.288  -2.693   2.006  1.00  0.00    -0.063 C 
ATOM      8  C   UNL     1       1.374  -2.313   1.302  1.00  0.00    -0.081 C 
ATOM      9  C   UNL     1       0.851  -2.731  -0.160  1.00  0.00    -0.022 C 
ATOM     10  C   UNL     1       2.317  -2.552  -0.836  1.00  0.00    -0.059 C 
ATOM     11  C   UNL     1       0.192  -1.234  -0.637  1.00  0.00    -0.025 C 
ATOM     12  C   UNL     1      -0.642  -0.886   0.785  1.00  0.00     0.024 C 
ENDROOT
BRANCH   1  13
ATOM     13  O   UNL     1      -2.352   0.580  -0.248  1.00  0.00    -0.461 OA
BRANCH  13  14
ATOM     14  C   UNL     1      -3.554   1.025   0.337  1.00  0.00     0.311 C 
ATOM     15  O   UNL     1      -4.178   0.286   1.176  1.00  0.00    -0.252 OA
BRANCH  14  16
ATOM     16  C   UNL     1      -4.369   2.160  -0.155  1.00  0.00     0.062 C 
ATOM     17  C   UNL     1      -5.716   2.252   0.581  1.00  0.00    -0.049 C 
ATOM     18  C   UNL     1      -4.766   2.005  -1.629  1.00  0.00    -0.049 C 
BRANCH  16  19
ATOM     19  C   UNL     1      -3.671   3.499   0.107  1.00  0.00    -0.040 C 
ATOM     20  C   UNL     1      -4.367   4.072   0.808  1.00  0.00    -0.064 C 
ENDBRANCH  16  19
ENDBRANCH  14  16
ENDBRANCH  13  14
ENDBRANCH   1  13
BRANCH  11  21
ATOM     21  C   UNL     1       1.384  -0.388  -0.061  1.00  0.00    -0.046 C 
BRANCH  21  22
ATOM     22  C   UNL     1       2.457   0.158  -0.696  1.00  0.00    -0.015 C 
BRANCH  22  23
ATOM     23  C   UNL     1       3.132   0.473   0.792  1.00  0.00     0.104 C 
ATOM     24  C   UNL     1       3.332   2.073   0.511  1.00  0.00     0.011 C 
ATOM     25  O   UNL     1       4.532   0.036   0.335  1.00  0.00    -0.462 OA
ATOM     26  C   UNL     1       4.233   2.104  -0.857  1.00  0.00     0.068 C 
ATOM     27  C   UNL     1       5.538   0.880   0.809  1.00  0.00     0.308 C 
ATOM     28  O   UNL     1       4.170   3.622  -0.909  1.00  0.00    -0.392 OA
ATOM     29  C   UNL     1       5.638   2.142   0.011  1.00  0.00     0.072 C 
ATOM     30  O   UNL     1       6.525   0.310   1.331  1.00  0.00    -0.252 OA
ENDBRANCH  22  23
ENDBRANCH  21  22
ENDBRANCH  11  21
TORSDOF 7

