
     RDKit          3D

 22 25  0  0  0  0  0  0  0  0999 V2000
    1.3192    4.6345    0.2068 C   0  0  0  0  0  0  0  0  0  0  0  0
    0.4090    3.4565    0.0357 C   0  0  0  0  0  0  0  0  0  0  0  0
    0.8325    2.1368    0.1551 C   0  0  0  0  0  0  0  0  0  0  0  0
   -0.1627    1.2514   -0.1579 C   0  0  0  0  0  0  0  0  0  0  0  0
   -1.3447    1.5712    0.5013 C   0  0  0  0  0  0  0  0  0  0  0  0
   -1.2203    3.2834    0.5526 S   0  0  0  0  0  0  0  0  0  0  0  0
   -2.5180    0.7893    0.7541 N   0  0  0  0  0  0  0  0  0  0  0  0
   -2.6696   -0.6304    0.6183 C   0  0  0  0  0  0  0  0  0  0  0  0
   -3.9373   -1.0297    1.0073 C   0  0  0  0  0  0  0  0  0  0  0  0
   -4.5526   -2.0831    0.3417 C   0  0  0  0  0  0  0  0  0  0  0  0
   -3.7433   -2.9252   -0.4071 C   0  0  0  0  0  0  0  0  0  0  0  0
   -2.4320   -2.5835   -0.6992 C   0  0  0  0  0  0  0  0  0  0  0  0
   -1.8864   -1.3872   -0.2470 C   0  0  0  0  0  0  0  0  0  0  0  0
   -0.5737   -1.1528   -0.7520 N   0  0  0  0  0  0  0  0  0  0  0  0
    0.1879   -0.1235   -0.5408 C   0  0  0  0  0  0  0  0  0  0  0  0
    1.5672   -0.3867   -0.7406 N   0  0  0  0  0  0  0  0  0  0  0  0
    2.5421    0.6644   -0.4708 C   0  0  0  0  0  0  0  0  0  0  0  0
    3.9409    0.1557   -0.6513 C   0  0  0  0  0  0  0  0  0  0  0  0
    4.2200   -1.0644    0.0538 N   0  0  0  0  0  0  0  0  0  0  0  0
    4.8101   -0.8537    1.3490 C   0  0  0  0  0  0  0  0  0  0  0  0
    3.1401   -2.0107    0.0513 C   0  0  0  0  0  0  0  0  0  0  0  0
    2.0716   -1.7122   -0.9602 C   0  0  0  0  0  0  0  0  0  0  0  0
  1  2  1  0
  2  3  2  0
  3  4  1  0
  4  5  2  0
  5  6  1  0
  5  7  1  0
  7  8  1  0
  8  9  2  0
  9 10  1  0
 10 11  2  0
 11 12  1  0
 12 13  2  0
 13 14  1  0
 14 15  2  0
 15 16  1  0
 16 17  1  0
 17 18  1  0
 18 19  1  0
 19 20  1  0
 19 21  1  0
 21 22  1  0
  6  2  1  0
 13  8  1  0
 22 16  1  0
 15  4  1  0
M  END
>  <zinc_id>  (1) 
ZINC000052957434

>  <smiles>  (1) 
Cc1cc2c(s1)Nc1ccccc1N=C2N1CCN(C)CC1

$$$$
