
     RDKit          3D

 30 33  0  0  0  0  0  0  0  0999 V2000
   -7.6702    2.9488   -0.6494 O   0  0  0  0  0  0  0  0  0  0  0  0
   -7.1985    2.1236    0.1863 C   0  0  0  0  0  0  0  0  0  0  0  0
   -8.1165    1.3495    1.0563 C   0  0  0  0  0  0  0  0  0  0  0  0
   -7.9407   -0.1366    0.8969 C   0  0  0  0  0  0  0  0  0  0  0  0
   -6.5793   -0.4950    0.4002 C   0  0  0  0  0  0  0  0  0  0  0  0
   -6.3903   -1.7965   -0.0353 C   0  0  0  0  0  0  0  0  0  0  0  0
   -5.0918   -2.2809   -0.1170 C   0  0  0  0  0  0  0  0  0  0  0  0
   -4.0453   -1.4806    0.3127 C   0  0  0  0  0  0  0  0  0  0  0  0
   -2.7451   -1.9757    0.2188 O   0  0  0  0  0  0  0  0  0  0  0  0
   -2.0318   -2.0495   -0.9937 C   0  0  0  0  0  0  0  0  0  0  0  0
   -1.3690   -0.7221   -1.2391 C   0  0  0  0  0  0  0  0  0  0  0  0
   -0.1316   -0.6160   -0.3735 C   0  0  0  0  0  0  0  0  0  0  0  0
    1.0467   -0.3658   -1.2724 C   0  0  0  0  0  0  0  0  0  0  0  0
    1.8731    0.6905   -0.6973 N   0  0  0  0  0  0  0  0  0  0  0  0
    3.0452    0.9075   -1.5172 C   0  0  0  0  0  0  0  0  0  0  0  0
    3.8963   -0.3412   -1.5456 C   0  0  0  0  0  0  0  0  0  0  0  0
    4.2697   -0.6382   -0.1718 N   0  0  0  0  0  0  0  0  0  0  0  0
    5.6516   -0.5187    0.1662 C   0  0  0  0  0  0  0  0  0  0  0  0
    6.5744   -1.5151   -0.1059 C   0  0  0  0  0  0  0  0  0  0  0  0
    7.9437   -1.3037   -0.0185 C   0  0  0  0  0  0  0  0  0  0  0  0
    8.3889    0.0069    0.0733 C   0  0  0  0  0  0  0  0  0  0  0  0
    7.4805    1.0539    0.1372 C   0  0  0  0  0  0  0  0  0  0  0  0
    8.0143    2.7302    0.2123 Cl  0  0  0  0  0  0  0  0  0  0  0  0
    6.1420    0.7649    0.3709 C   0  0  0  0  0  0  0  0  0  0  0  0
    5.1412    1.8744    1.3004 Cl  0  0  0  0  0  0  0  0  0  0  0  0
    3.2366   -0.6763    0.8306 C   0  0  0  0  0  0  0  0  0  0  0  0
    2.2112    0.4117    0.6764 C   0  0  0  0  0  0  0  0  0  0  0  0
   -4.2610   -0.1215    0.4965 C   0  0  0  0  0  0  0  0  0  0  0  0
   -5.5261    0.4013    0.5358 C   0  0  0  0  0  0  0  0  0  0  0  0
   -5.8182    1.7701    0.2291 N   0  0  0  0  0  0  0  0  0  0  0  0
  1  2  2  0
  2  3  1  0
  3  4  1  0
  4  5  1  0
  5  6  2  0
  6  7  1  0
  7  8  2  0
  8  9  1  0
  9 10  1  0
 10 11  1  0
 11 12  1  0
 12 13  1  0
 13 14  1  0
 14 15  1  0
 15 16  1  0
 16 17  1  0
 17 18  1  0
 18 19  2  0
 19 20  1  0
 20 21  2  0
 21 22  1  0
 22 23  1  0
 22 24  2  0
 24 25  1  0
 17 26  1  0
 26 27  1  0
  8 28  1  0
 28 29  2  0
 29 30  1  0
 30  2  1  0
 29  5  1  0
 27 14  1  0
 24 18  1  0
M  END
>  <zinc_id>  (1) 
ZINC000001851149

>  <smiles>  (1) 
O=C1CCc2ccc(OCCCCN3CCN(c4cccc(Cl)c4Cl)CC3)cc2N1

$$$$
