
     RDKit          3D

 29 33  0  0  0  0  0  0  0  0999 V2000
   -5.7442    2.2385    2.2335 C   0  0  0  0  0  0  0  0  0  0  0  0
   -5.0044    1.1642    1.8819 N   0  0  0  0  0  0  0  0  0  0  0  0
   -5.5052    0.6801    0.7216 C   0  0  0  0  0  0  0  0  0  0  0  0
   -4.7997   -0.2859   -0.1301 C   0  0  0  0  0  0  0  0  0  0  0  0
   -5.4064   -0.7238   -1.2784 C   0  0  0  0  0  0  0  0  0  0  0  0
   -4.6347   -1.1734   -2.3251 C   0  0  0  0  0  0  0  0  0  0  0  0
   -3.2692   -1.2066   -2.2392 C   0  0  0  0  0  0  0  0  0  0  0  0
   -2.2260   -1.4444   -3.0495 N   0  0  0  0  0  0  0  0  0  0  0  0
   -1.1016   -1.5111   -2.3375 N   0  0  0  0  0  0  0  0  0  0  0  0
   -1.3312   -1.1319   -1.0692 C   0  0  0  0  0  0  0  0  0  0  0  0
   -0.3425   -0.4114   -0.2606 C   0  0  0  0  0  0  0  0  0  0  0  0
   -0.3673    0.9686   -0.1184 C   0  0  0  0  0  0  0  0  0  0  0  0
    0.7875    1.7085    0.0928 C   0  0  0  0  0  0  0  0  0  0  0  0
    1.9948    1.0223    0.0821 C   0  0  0  0  0  0  0  0  0  0  0  0
    1.9346   -0.2986    0.5094 C   0  0  0  0  0  0  0  0  0  0  0  0
    3.0231   -0.9841    0.9998 O   0  0  0  0  0  0  0  0  0  0  0  0
    4.0677   -0.4080    1.7479 C   0  0  0  0  0  0  0  0  0  0  0  0
    4.5305    0.9174    1.1587 C   0  0  0  0  0  0  0  0  0  0  0  0
    5.8363    0.7170    0.5822 N   0  0  0  0  0  0  0  0  0  0  0  0
    5.7552   -0.3281   -0.4220 C   0  0  0  0  0  0  0  0  0  0  0  0
    6.9245   -1.2770   -0.2496 C   0  0  0  0  0  0  0  0  0  0  0  0
    8.2325   -0.5250   -0.1196 C   0  0  0  0  0  0  0  0  0  0  0  0
    8.1997    0.3511    1.1081 C   0  0  0  0  0  0  0  0  0  0  0  0
    6.7882    0.3819    1.6219 C   0  0  0  0  0  0  0  0  0  0  0  0
    0.8012   -1.0449    0.2091 C   0  0  0  0  0  0  0  0  0  0  0  0
   -2.7037   -0.9266   -1.0026 C   0  0  0  0  0  0  0  0  0  0  0  0
   -3.4558   -0.5617    0.0936 C   0  0  0  0  0  0  0  0  0  0  0  0
   -6.5806    1.4254    0.4590 N   0  0  0  0  0  0  0  0  0  0  0  0
   -6.4033    2.5794    1.1003 N   0  0  0  0  0  0  0  0  0  0  0  0
  1  2  2  0
  2  3  1  0
  3  4  1  0
  4  5  2  0
  5  6  1  0
  6  7  2  0
  7  8  1  0
  8  9  1  0
  9 10  2  0
 10 11  1  0
 11 12  2  0
 12 13  1  0
 13 14  2  0
 14 15  1  0
 15 16  1  0
 16 17  1  0
 17 18  1  0
 18 19  1  0
 19 20  1  0
 20 21  1  0
 21 22  1  0
 22 23  1  0
 23 24  1  0
 15 25  2  0
 10 26  1  0
 26 27  2  0
  3 28  2  0
 28 29  1  0
 29  1  1  0
 27  4  1  0
 26  7  1  0
 25 11  1  0
 24 19  1  0
M  END
>  <zinc_id>  (1) 
ZINC000038836256

>  <smiles>  (1) 
c1cc(OCCN2CCCCC2)cc(-c2n[nH]c3ccc(-c4nc[nH]n4)cc23)c1

$$$$
