REMARK SMILES C[C@@H]1CN(Cc2ccc(F)cc2)CCN1C(=O)COc1ccc(Cl)cc1NC(N)=O
REMARK SMILES IDX 16 1 17 2 15 3 1 4 2 5 3 6 4 7 14 8 13 9 5 10 6 11 7 12
REMARK SMILES IDX 12 13 8 14 11 15 9 16 10 17 18 18 19 19 20 20 21 21 26 22
REMARK SMILES IDX 22 23 25 24 23 25 24 26 27 27 28 28 29 29 30 30
REMARK H PARENT
REMARK Flexibility Score: inf
ROOT
ATOM      1  C   UNL     1      -0.710   0.767   0.498  1.00  0.00     0.260 C 
ATOM      2  O   UNL     1      -1.076   0.342   1.636  1.00  0.00    -0.271 OA
ENDROOT
BRANCH   1   3
ATOM      3  N   UNL     1       0.641   1.206   0.424  1.00  0.00    -0.334 N 
ATOM      4  C   UNL     1       1.199  -0.839   1.426  1.00  0.00    -0.043 C 
ATOM      5  C   UNL     1       1.605  -0.009   0.034  1.00  0.00     0.042 C 
ATOM      6  C   UNL     1       2.895   0.726   0.802  1.00  0.00     0.019 C 
ATOM      7  N   UNL     1       3.243   1.667  -0.261  1.00  0.00    -0.295 NA
ATOM      8  C   UNL     1       0.941   2.376  -0.366  1.00  0.00     0.034 C 
ATOM      9  C   UNL     1       2.376   2.816  -0.237  1.00  0.00     0.016 C 
BRANCH   7  10
ATOM     10  C   UNL     1       4.634   2.031  -0.248  1.00  0.00     0.023 C 
BRANCH  10  11
ATOM     11  C   UNL     1       5.438   0.772  -0.249  1.00  0.00    -0.034 A 
ATOM     12  C   UNL     1       6.823   0.784  -0.138  1.00  0.00    -0.055 A 
ATOM     13  C   UNL     1       4.893  -0.450  -0.625  1.00  0.00    -0.055 A 
ATOM     14  C   UNL     1       7.548  -0.397  -0.159  1.00  0.00    -0.026 A 
ATOM     15  C   UNL     1       5.520  -1.569  -0.088  1.00  0.00    -0.026 A 
ATOM     16  C   UNL     1       6.902  -1.617  -0.188  1.00  0.00     0.123 A 
ATOM     17  F   UNL     1       7.577  -2.765  -0.471  1.00  0.00    -0.207 F 
ENDBRANCH  10  11
ENDBRANCH   7  10
ENDBRANCH   1   3
BRANCH   1  18
ATOM     18  C   UNL     1      -1.237   0.004  -0.677  1.00  0.00     0.167 C 
BRANCH  18  19
ATOM     19  O   UNL     1      -2.612   0.355  -0.805  1.00  0.00    -0.482 OA
BRANCH  19  20
ATOM     20  C   UNL     1      -3.614  -0.449  -0.265  1.00  0.00     0.143 A 
ATOM     21  C   UNL     1      -3.324  -1.557   0.510  1.00  0.00    -0.016 A 
ATOM     22  C   UNL     1      -4.875  -0.410  -0.821  1.00  0.00     0.086 A 
ATOM     23  C   UNL     1      -4.212  -2.601   0.674  1.00  0.00    -0.040 A 
ATOM     24  C   UNL     1      -5.729  -1.492  -0.734  1.00  0.00    -0.016 A 
ATOM     25  C   UNL     1      -5.344  -2.663  -0.102  1.00  0.00     0.043 A 
ATOM     26  Cl  UNL     1      -6.046  -4.219  -0.503  1.00  0.00    -0.084 Cl
BRANCH  22  27
ATOM     27  N   UNL     1      -5.348   0.838  -1.321  1.00  0.00    -0.305 N 
ATOM     28  C   UNL     1      -5.832   1.792  -0.385  1.00  0.00     0.316 C 
ATOM     29  N   UNL     1      -5.656   3.197  -0.553  1.00  0.00    -0.351 N 
ATOM     30  O   UNL     1      -6.621   1.365   0.496  1.00  0.00    -0.249 OA
ENDBRANCH  22  27
ENDBRANCH  19  20
ENDBRANCH  18  19
ENDBRANCH   1  18
TORSDOF 7

