
     RDKit          3D

 37 40  0  0  0  0  0  0  0  0999 V2000
   -0.4215   -6.2274   -0.7305 C   0  0  0  0  0  0  0  0  0  0  0  0
   -0.8684   -5.9296    0.0090 N   0  0  0  0  0  0  0  0  0  0  0  0
   -0.3784   -6.3098    1.3265 C   0  0  0  0  0  0  0  0  0  0  0  0
   -1.5740   -4.6836   -0.0533 C   0  0  0  0  0  0  0  0  0  0  0  0
   -2.7283   -4.7533   -0.5805 O   0  0  0  0  0  0  0  0  0  0  0  0
   -0.7365   -3.6319   -0.9665 C   0  0  2  0  0  0  0  0  0  0  0  0
    0.5534   -3.6550    0.0728 C   0  0  0  0  0  0  0  0  0  0  0  0
    1.5253   -2.8672   -0.8078 C   0  0  0  0  0  0  0  0  0  0  0  0
    0.5813   -1.6999   -1.4909 C   0  0  2  0  0  0  0  0  0  0  0  0
    1.6779   -0.5883   -1.3257 N   0  0  0  0  0  0  0  0  0  0  0  0
    2.3095   -0.4359   -0.0983 C   0  0  0  0  0  0  0  0  0  0  0  0
    1.8127   -0.9396    0.9271 O   0  0  0  0  0  0  0  0  0  0  0  0
    3.4150    0.5293   -0.0253 C   0  0  0  0  0  0  0  0  0  0  0  0
    3.2824    1.6842    0.4538 O   0  0  0  0  0  0  0  0  0  0  0  0
    4.7143   -0.0710    0.0443 N   0  0  0  0  0  0  0  0  0  0  0  0
    5.8690    0.7329    0.3181 C   0  0  0  0  0  0  0  0  0  0  0  0
    6.6996    1.1684   -0.7089 C   0  0  0  0  0  0  0  0  0  0  0  0
    7.1168    2.4901   -0.8072 C   0  0  0  0  0  0  0  0  0  0  0  0
    6.8076    3.3636    0.2298 C   0  0  0  0  0  0  0  0  0  0  0  0
    6.3363    5.0298   -0.0971 Cl  0  0  0  0  0  0  0  0  0  0  0  0
    6.4637    2.7376    1.4227 C   0  0  0  0  0  0  0  0  0  0  0  0
    5.9484    1.4827    1.4467 N   0  0  0  0  0  0  0  0  0  0  0  0
   -0.1512   -1.3456    0.0387 C   0  0  1  0  0  0  0  0  0  0  0  0
   -0.9055   -0.0954   -0.5540 N   0  0  0  0  0  0  0  0  0  0  0  0
   -1.5744    0.6325    0.4830 C   0  0  0  0  0  0  0  0  0  0  0  0
   -1.3349    0.4649    1.7033 O   0  0  0  0  0  0  0  0  0  0  0  0
   -2.7019    1.5110    0.1467 C   0  0  0  0  0  0  0  0  0  0  0  0
   -3.7170    1.3005   -0.7126 N   0  0  0  0  0  0  0  0  0  0  0  0
   -4.8774    1.7895   -0.2726 C   0  0  0  0  0  0  0  0  0  0  0  0
   -4.7517    3.1156    0.1302 C   0  0  0  0  0  0  0  0  0  0  0  0
   -3.1356    3.0725    0.7162 S   0  0  0  0  0  0  0  0  0  0  0  0
   -5.9175    3.8962    0.6554 C   0  0  0  0  0  0  0  0  0  0  0  0
   -7.1687    3.4247    0.1316 N   0  0  0  0  0  0  0  0  0  0  0  0
   -7.2135    3.8072   -1.2705 C   0  0  0  0  0  0  0  0  0  0  0  0
   -7.2669    1.9762    0.2562 C   0  0  0  0  0  0  0  0  0  0  0  0
   -6.2538    1.3563   -0.6825 C   0  0  0  0  0  0  0  0  0  0  0  0
   -1.4363   -2.3323   -0.2291 C   0  0  0  0  0  0  0  0  0  0  0  0
  1  2  1  0
  2  3  1  0
  2  4  1  0
  4  5  2  0
  6  4  1  1
  6  7  1  0
  7  8  1  0
  8  9  1  0
  9 10  1  1
 10 11  1  0
 11 12  2  0
 11 13  1  0
 13 14  2  0
 13 15  1  0
 15 16  1  0
 16 17  2  0
 17 18  1  0
 18 19  2  0
 19 20  1  0
 19 21  1  0
 21 22  2  0
  9 23  1  0
 23 24  1  6
 24 25  1  0
 25 26  2  0
 25 27  1  0
 27 28  2  0
 28 29  1  0
 29 30  2  0
 30 31  1  0
 30 32  1  0
 32 33  1  0
 33 34  1  0
 33 35  1  0
 35 36  1  0
 23 37  1  0
 37  6  1  0
 22 16  1  0
 31 27  1  0
 36 29  1  0
M  END
>  <zinc_id>  (1) 
ZINC000114447089

>  <smiles>  (1) 
CN1CCc2nc(C(=O)N[C@H]3C[C@H](C(=O)N(C)C)CC[C@@H]3NC(=O)C(=O)Nc3ccc(Cl)cn3)sc2C1

$$$$
