
     RDKit          3D

  7  7  0  0  0  0  0  0  0  0999 V2000
    2.4004   -0.0021   -0.0790 N   0  0  0  0  0  0  0  0  0  0  0  0
    0.9680    0.0195   -0.0976 C   0  0  0  0  0  0  0  0  0  0  0  0
    0.2570    1.2098   -0.0037 C   0  0  0  0  0  0  0  0  0  0  0  0
   -1.1116    1.1142    0.2060 C   0  0  0  0  0  0  0  0  0  0  0  0
   -1.7230   -0.0143   -0.2273 N   0  0  0  0  0  0  0  0  0  0  0  0
   -1.0733   -1.1891   -0.0491 C   0  0  0  0  0  0  0  0  0  0  0  0
    0.2824   -1.1380    0.2507 C   0  0  0  0  0  0  0  0  0  0  0  0
  1  2  1  0
  2  3  2  0
  3  4  1  0
  4  5  2  0
  5  6  1  0
  6  7  2  0
  7  2  1  0
M  END
>  <zinc_id>  (1) 
ZINC000000599985

>  <smiles>  (1) 
Nc1ccncc1

$$$$
