
     RDKit          3D

 31 31  0  0  0  0  0  0  0  0999 V2000
   11.0579   -0.3113   -1.1170 C   0  0  0  0  0  0  0  0  0  0  0  0
   10.3621   -0.1032   -2.3090 C   0  0  0  0  0  0  0  0  0  0  0  0
    8.9253    0.2737   -1.9892 C   0  0  0  0  0  0  0  0  0  0  0  0
    8.9379    0.8727   -0.5897 C   0  0  0  0  0  0  0  0  0  0  0  0
    7.5104    0.9701   -0.0641 C   0  0  0  0  0  0  0  0  0  0  0  0
    7.4923    0.2002    1.2513 C   0  0  0  0  0  0  0  0  0  0  0  0
    6.5278   -0.9569    1.1279 C   0  0  0  0  0  0  0  0  0  0  0  0
    5.2762   -0.5969    1.8763 C   0  0  0  0  0  0  0  0  0  0  0  0
    5.2920    0.7976    2.3900 C   0  0  0  0  0  0  0  0  0  0  0  0
    4.1222    1.3549    2.7212 C   0  0  0  0  0  0  0  0  0  0  0  0
    2.8173    0.6922    2.4725 C   0  0  0  0  0  0  0  0  0  0  0  0
    2.4098    0.7469    1.0159 C   0  0  0  0  0  0  0  0  0  0  0  0
    2.1970   -0.6202    0.4206 C   0  0  0  0  0  0  0  0  0  0  0  0
    1.5476   -1.5885    1.3642 C   0  0  0  0  0  0  0  0  0  0  0  0
    0.0507   -1.4235    1.2947 C   0  0  0  0  0  0  0  0  0  0  0  0
   -0.2240    0.0579    1.0801 C   0  0  0  0  0  0  0  0  0  0  0  0
   -1.5044    0.3833    1.7904 C   0  0  0  0  0  0  0  0  0  0  0  0
   -2.6376    0.0573    0.8698 C   0  0  0  0  0  0  0  0  0  0  0  0
   -2.9837   -1.1419    0.7181 O   0  0  0  0  0  0  0  0  0  0  0  0
   -3.1209    0.9788   -0.1163 N   0  0  0  0  0  0  0  0  0  0  0  0
   -4.7172    0.9888   -0.0023 C   0  0  1  0  0  0  0  0  0  0  0  0
   -4.8798    1.9612   -1.3481 C   0  0  0  0  0  0  0  0  0  0  0  0
   -4.0622    1.4132   -2.3010 O   0  0  0  0  0  0  0  0  0  0  0  0
   -4.8455   -0.4096   -0.9064 C   0  0  0  0  0  0  0  0  0  0  0  0
   -6.3058   -0.6538   -0.9963 C   0  0  0  0  0  0  0  0  0  0  0  0
   -6.9124   -0.9457   -2.2135 C   0  0  0  0  0  0  0  0  0  0  0  0
   -8.1479   -0.4079   -2.5551 C   0  0  0  0  0  0  0  0  0  0  0  0
   -8.8672    0.3230   -1.6161 C   0  0  0  0  0  0  0  0  0  0  0  0
   -9.6058    1.4569   -1.9719 O   0  0  0  0  0  0  0  0  0  0  0  0
   -8.5164    0.0602   -0.2962 C   0  0  0  0  0  0  0  0  0  0  0  0
   -7.1956   -0.2644   -0.0011 C   0  0  0  0  0  0  0  0  0  0  0  0
  1  2  1  0
  2  3  1  0
  3  4  1  0
  4  5  1  0
  5  6  1  0
  6  7  1  0
  7  8  1  0
  8  9  1  0
  9 10  2  0
 10 11  1  0
 11 12  1  0
 12 13  1  0
 13 14  1  0
 14 15  1  0
 15 16  1  0
 16 17  1  0
 17 18  1  0
 18 19  2  0
 18 20  1  0
 21 20  1  6
 21 22  1  0
 22 23  1  0
 21 24  1  0
 24 25  1  0
 25 26  2  0
 26 27  1  0
 27 28  2  0
 28 29  1  0
 28 30  1  0
 30 31  2  0
 31 25  1  0
M  END
>  <zinc_id>  (1) 
ZINC000008036049

>  <smiles>  (1) 
CCCCCCCC/C=C\CCCCCCCC(=O)N[C@@H](CO)Cc1ccc(O)cc1

$$$$
