
     RDKit          3D

 19 20  0  0  0  0  0  0  0  0999 V2000
    5.3373    1.7533    0.6963 C   0  0  0  0  0  0  0  0  0  0  0  0
    4.6495    1.3406   -0.5752 C   0  0  0  0  0  0  0  0  0  0  0  0
    3.5848    0.3058   -0.2416 C   0  0  0  0  0  0  0  0  0  0  0  0
    3.8215   -0.9992   -0.9606 C   0  0  0  0  0  0  0  0  0  0  0  0
    2.4921   -1.6944   -1.2201 C   0  0  0  0  0  0  0  0  0  0  0  0
    1.4391   -0.6473   -1.4598 C   0  0  0  0  0  0  0  0  0  0  0  0
    0.7891   -0.2258   -0.2973 O   0  0  0  0  0  0  0  0  0  0  0  0
    0.1054   -1.0750    0.5807 C   0  0  0  0  0  0  0  0  0  0  0  0
    0.6355   -2.2827    0.8865 N   0  0  0  0  0  0  0  0  0  0  0  0
   -0.3190   -2.7375    2.2102 S   0  0  0  0  0  0  0  0  0  0  0  0
   -1.6206   -1.7037    1.8887 N   0  0  0  0  0  0  0  0  0  0  0  0
   -1.2510   -1.0556    0.7550 C   0  0  0  0  0  0  0  0  0  0  0  0
   -2.1220    0.0004    0.2187 C   0  0  0  0  0  0  0  0  0  0  0  0
   -3.1106    0.5420    0.8875 C   0  0  0  0  0  0  0  0  0  0  0  0
   -4.2499    1.2329    0.2073 C   0  0  0  0  0  0  0  0  0  0  0  0
   -3.8431    1.5750   -1.2186 C   0  0  0  0  0  0  0  0  0  0  0  0
   -2.4509    1.9460   -1.1820 N   0  0  0  0  0  0  0  0  0  0  0  0
   -2.2285    2.9635   -0.1926 C   0  0  0  0  0  0  0  0  0  0  0  0
   -1.6587    0.7617   -0.9831 C   0  0  0  0  0  0  0  0  0  0  0  0
  1  2  1  0
  2  3  1  0
  3  4  1  0
  4  5  1  0
  5  6  1  0
  6  7  1  0
  7  8  1  0
  8  9  2  0
  9 10  1  0
 10 11  1  0
 11 12  2  0
 12 13  1  0
 13 14  2  0
 14 15  1  0
 15 16  1  0
 16 17  1  0
 17 18  1  0
 17 19  1  0
 12  8  1  0
 19 13  1  0
M  END
>  <zinc_id>  (1) 
ZINC000001532358

>  <smiles>  (1) 
CCCCCCOc1nsnc1C1=CCCN(C)C1

$$$$
