
     RDKit          3D

 30 34  0  0  0  0  0  0  0  0999 V2000
   -4.2424   -0.1431    1.9197 C   0  0  0  0  0  0  0  0  0  0  0  0
   -3.4621    0.3878    2.2717 C   0  0  0  0  0  0  0  0  0  0  0  0
   -3.8156    0.9742    3.5789 C   0  0  0  0  0  0  0  0  0  0  0  0
   -2.3965   -0.5321    2.3023 O   0  0  0  0  0  0  0  0  0  0  0  0
   -2.8049   -1.0195    0.9175 C   0  0  2  0  0  0  0  0  0  0  0  0
   -1.2934   -1.5926    0.6114 C   0  0  0  0  0  0  0  0  0  0  0  0
   -0.4697   -0.2528    0.9463 C   0  0  1  0  0  0  0  0  0  0  0  0
    0.7737   -0.6339   -0.1247 C   0  0  2  0  0  0  0  0  0  0  0  0
    1.6123   -1.4932    0.9399 C   0  0  0  0  0  0  0  0  0  0  0  0
    2.5208   -2.0815   -0.1425 C   0  0  0  0  0  0  0  0  0  0  0  0
    3.1348   -0.8951   -0.8316 C   0  0  0  0  0  0  0  0  0  0  0  0
    4.3546   -1.1063   -1.3493 C   0  0  0  0  0  0  0  0  0  0  0  0
    5.5325   -0.3675   -0.8569 C   0  0  0  0  0  0  0  0  0  0  0  0
    6.7101   -0.8338   -0.9422 O   0  0  0  0  0  0  0  0  0  0  0  0
    5.2280    0.3007    0.4195 C   0  0  0  0  0  0  0  0  0  0  0  0
    4.0132    0.8331    0.4993 C   0  0  0  0  0  0  0  0  0  0  0  0
    2.9367    0.4933   -0.4937 C   0  0  1  0  0  0  0  0  0  0  0  0
    3.1725    1.4145   -1.6237 C   0  0  0  0  0  0  0  0  0  0  0  0
    1.5641    0.7856    0.2668 C   0  0  1  0  0  0  0  0  0  0  0  0
    0.8927    1.7569   -0.9774 C   0  0  1  0  0  0  0  0  0  0  0  0
    0.7223    0.6593   -2.0045 O   0  0  0  0  0  0  0  0  0  0  0  0
   -0.6314    1.7447   -0.4018 C   0  0  0  0  0  0  0  0  0  0  0  0
   -1.2461    0.4913   -0.2599 C   0  0  1  0  0  0  0  0  0  0  0  0
   -1.2832   -0.4760   -1.4096 C   0  0  0  0  0  0  0  0  0  0  0  0
   -2.5694    0.4812    0.2934 C   0  0  1  0  0  0  0  0  0  0  0  0
   -3.6644    0.5857   -0.7006 C   0  0  0  0  0  0  0  0  0  0  0  0
   -4.5517    1.4267   -0.5560 O   0  0  0  0  0  0  0  0  0  0  0  0
   -3.7920   -0.2051   -1.9444 C   0  0  0  0  0  0  0  0  0  0  0  0
   -4.0742   -1.5511   -1.7140 O   0  0  0  0  0  0  0  0  0  0  0  0
   -2.8713    1.2825    1.3662 O   0  0  0  0  0  0  0  0  0  0  0  0
  1  2  1  0
  2  3  1  0
  2  4  1  0
  5  4  1  1
  5  6  1  0
  7  6  1  6
  7  8  1  0
  8  9  1  1
  9 10  1  0
 10 11  1  0
 11 12  2  0
 12 13  1  0
 13 14  2  0
 13 15  1  0
 15 16  2  0
 16 17  1  0
 17 18  1  6
 19 17  1  6
 19 20  1  0
 20 21  1  6
 20 22  1  0
 22 23  1  0
 23 24  1  6
 23 25  1  0
 25 26  1  6
 26 27  2  0
 26 28  1  0
 28 29  1  0
 25 30  1  0
 30  2  1  0
 25  5  1  0
 23  7  1  0
 19  8  1  0
 17 11  1  0
M  END
>  <zinc_id>  (1) 
ZINC000004212851

>  <smiles>  (1) 
CC1(C)O[C@@H]2C[C@H]3[C@@H]4CCC5=CC(=O)C=C[C@]5(C)[C@H]4[C@@H](O)C[C@]3(C)[C@]2(C(=O)CO)O1

$$$$
