
     RDKit          3D

 33 35  0  0  0  0  0  0  0  0999 V2000
   -9.4988   -3.2520    0.5428 C   0  0  0  0  0  0  0  0  0  0  0  0
   -8.8489   -2.0082    0.2095 N   0  0  0  0  0  0  0  0  0  0  0  0
   -7.8352   -1.9407   -0.7951 C   0  0  0  0  0  0  0  0  0  0  0  0
   -7.6054   -3.0089   -1.4249 O   0  0  0  0  0  0  0  0  0  0  0  0
   -6.7363   -0.9937   -0.6409 C   0  0  0  0  0  0  0  0  0  0  0  0
   -5.5925   -1.3699    0.0405 C   0  0  0  0  0  0  0  0  0  0  0  0
   -4.4494   -0.5838    0.0620 C   0  0  0  0  0  0  0  0  0  0  0  0
   -3.1839   -1.1723    0.1444 O   0  0  0  0  0  0  0  0  0  0  0  0
   -2.0890   -0.3063    0.1632 C   0  0  0  0  0  0  0  0  0  0  0  0
   -1.7380    0.1929    1.4088 C   0  0  0  0  0  0  0  0  0  0  0  0
   -0.7503    1.1581    1.4232 C   0  0  0  0  0  0  0  0  0  0  0  0
   -0.1078    1.5583    0.2650 C   0  0  0  0  0  0  0  0  0  0  0  0
    1.0688    2.3499    0.4498 N   0  0  0  0  0  0  0  0  0  0  0  0
    2.3840    1.8066    0.3852 C   0  0  0  0  0  0  0  0  0  0  0  0
    2.5392    0.8216   -0.3952 O   0  0  0  0  0  0  0  0  0  0  0  0
    3.3504    1.9791    1.4184 N   0  0  0  0  0  0  0  0  0  0  0  0
    4.6585    1.4324    1.3628 C   0  0  0  0  0  0  0  0  0  0  0  0
    5.7366    2.3047    1.2845 C   0  0  0  0  0  0  0  0  0  0  0  0
    6.8646    2.0172    0.5274 C   0  0  0  0  0  0  0  0  0  0  0  0
    6.9568    0.8019   -0.1368 C   0  0  0  0  0  0  0  0  0  0  0  0
    7.7999    0.6422   -1.6724 Cl  0  0  0  0  0  0  0  0  0  0  0  0
    6.1034   -0.1962    0.3157 C   0  0  0  0  0  0  0  0  0  0  0  0
    6.3188   -1.5731   -0.1645 C   0  0  0  0  0  0  0  0  0  0  0  0
    6.5682   -2.4770    0.8341 F   0  0  0  0  0  0  0  0  0  0  0  0
    5.2060   -2.0015   -0.8571 F   0  0  0  0  0  0  0  0  0  0  0  0
    7.3811   -1.6322   -1.0466 F   0  0  0  0  0  0  0  0  0  0  0  0
    4.9153    0.1297    0.9569 C   0  0  0  0  0  0  0  0  0  0  0  0
   -0.5534    1.1448   -0.9662 C   0  0  0  0  0  0  0  0  0  0  0  0
   -0.0587    1.7341   -2.0706 F   0  0  0  0  0  0  0  0  0  0  0  0
   -1.7041    0.3692   -0.9879 C   0  0  0  0  0  0  0  0  0  0  0  0
   -4.6187    0.7575   -0.2453 C   0  0  0  0  0  0  0  0  0  0  0  0
   -5.7628    1.1096   -0.9292 C   0  0  0  0  0  0  0  0  0  0  0  0
   -6.7186    0.2058   -1.2549 N   0  0  0  0  0  0  0  0  0  0  0  0
  1  2  1  0
  2  3  1  0
  3  4  2  0
  3  5  1  0
  5  6  2  0
  6  7  1  0
  7  8  1  0
  8  9  1  0
  9 10  2  0
 10 11  1  0
 11 12  2  0
 12 13  1  0
 13 14  1  0
 14 15  2  0
 14 16  1  0
 16 17  1  0
 17 18  2  0
 18 19  1  0
 19 20  2  0
 20 21  1  0
 20 22  1  0
 22 23  1  0
 23 24  1  0
 23 25  1  0
 23 26  1  0
 22 27  2  0
 12 28  1  0
 28 29  1  0
 28 30  2  0
  7 31  2  0
 31 32  1  0
 32 33  2  0
 33  5  1  0
 30  9  1  0
 27 17  1  0
M  END
>  <zinc_id>  (1) 
ZINC000006745272

>  <smiles>  (1) 
CNC(=O)c1cc(Oc2ccc(NC(=O)Nc3ccc(Cl)c(C(F)(F)F)c3)c(F)c2)ccn1

$$$$
