
     RDKit          3D

 38 41  0  0  0  0  0  0  0  0999 V2000
   -3.3043   -0.9647   -1.4266 C   0  0  0  0  0  0  0  0  0  0  0  0
   -2.3949   -0.7744   -0.2536 C   0  0  0  0  0  0  0  0  0  0  0  0
   -1.9079   -1.8753    0.4390 C   0  0  0  0  0  0  0  0  0  0  0  0
   -2.6498   -3.1374    0.3305 C   0  0  0  0  0  0  0  0  0  0  0  0
   -2.8150   -3.8057   -0.8770 C   0  0  0  0  0  0  0  0  0  0  0  0
   -3.6571   -4.8649   -0.5592 C   0  0  0  0  0  0  0  0  0  0  0  0
   -3.7633   -4.8834    0.7710 N   0  0  0  0  0  0  0  0  0  0  0  0
   -3.1504   -3.8651    1.3314 N   0  0  0  0  0  0  0  0  0  0  0  0
   -3.3404   -3.3136    2.6711 C   0  0  0  0  0  0  0  0  0  0  0  0
   -0.6284   -1.8205    0.9780 C   0  0  0  0  0  0  0  0  0  0  0  0
    0.2094   -0.7470    0.7022 C   0  0  0  0  0  0  0  0  0  0  0  0
    1.6299   -0.9346    0.3790 C   0  0  0  0  0  0  0  0  0  0  0  0
    2.3995   -1.5064    1.2091 O   0  0  0  0  0  0  0  0  0  0  0  0
    1.9812   -1.0442   -0.9854 N   0  0  0  0  0  0  0  0  0  0  0  0
    3.0033   -1.9225   -1.5019 C   0  0  0  0  0  0  0  0  0  0  0  0
    4.2904   -1.1604   -1.5097 C   0  0  0  0  0  0  0  0  0  0  0  0
    4.3165    0.2171   -1.6915 C   0  0  0  0  0  0  0  0  0  0  0  0
    5.3861    0.9670   -1.2193 C   0  0  0  0  0  0  0  0  0  0  0  0
    6.1149    0.4032   -0.1869 C   0  0  0  0  0  0  0  0  0  0  0  0
    7.5110    1.3002    0.3969 S   0  0  0  0  0  0  0  0  0  0  0  0
    7.1820    3.0353    0.3465 C   0  0  0  0  0  0  0  0  0  0  0  0
    8.6434    1.0254   -0.5530 O   0  0  0  0  0  0  0  0  0  0  0  0
    7.8718    0.8565    1.7863 O   0  0  0  0  0  0  0  0  0  0  0  0
    6.2490   -0.9791   -0.1868 C   0  0  0  0  0  0  0  0  0  0  0  0
    5.4042   -1.6984   -0.9605 N   0  0  0  0  0  0  0  0  0  0  0  0
   -0.4299    0.4128    0.2798 C   0  0  0  0  0  0  0  0  0  0  0  0
    0.2335    1.4899    0.2614 O   0  0  0  0  0  0  0  0  0  0  0  0
   -1.7493    0.3964   -0.0301 N   0  0  0  0  0  0  0  0  0  0  0  0
   -2.4116    1.5826   -0.4840 C   0  0  0  0  0  0  0  0  0  0  0  0
   -2.7317    1.7734   -1.8232 C   0  0  0  0  0  0  0  0  0  0  0  0
   -3.8645    2.4765   -2.2142 C   0  0  0  0  0  0  0  0  0  0  0  0
   -4.6575    3.0902   -1.2647 C   0  0  0  0  0  0  0  0  0  0  0  0
   -4.3494    2.9413    0.0658 C   0  0  0  0  0  0  0  0  0  0  0  0
   -5.1708    3.6091    1.0994 C   0  0  0  0  0  0  0  0  0  0  0  0
   -5.8790    4.6290    0.4918 F   0  0  0  0  0  0  0  0  0  0  0  0
   -6.0069    2.7264    1.7424 F   0  0  0  0  0  0  0  0  0  0  0  0
   -4.3151    4.1547    2.0222 F   0  0  0  0  0  0  0  0  0  0  0  0
   -3.2489    2.2105    0.4239 C   0  0  0  0  0  0  0  0  0  0  0  0
  1  2  1  0
  2  3  2  0
  3  4  1  0
  4  5  2  0
  5  6  1  0
  6  7  2  0
  7  8  1  0
  8  9  1  0
  3 10  1  0
 10 11  2  0
 11 12  1  0
 12 13  2  0
 12 14  1  0
 14 15  1  0
 15 16  1  0
 16 17  2  0
 17 18  1  0
 18 19  2  0
 19 20  1  0
 20 21  1  0
 20 22  2  0
 20 23  2  0
 19 24  1  0
 24 25  2  0
 11 26  1  0
 26 27  2  0
 26 28  1  0
 28 29  1  0
 29 30  2  0
 30 31  1  0
 31 32  2  0
 32 33  1  0
 33 34  1  0
 34 35  1  0
 34 36  1  0
 34 37  1  0
 33 38  2  0
 28  2  1  0
 38 29  1  0
  8  4  1  0
 25 16  1  0
M  END
>  <zinc_id>  (1) 
ZINC000072316197

>  <smiles>  (1) 
Cc1c(-c2ccnn2C)cc(C(=O)NCc2ccc(S(C)(=O)=O)cn2)c(=O)n1-c1cccc(C(F)(F)F)c1

$$$$
