
     RDKit          3D

 19 20  0  0  0  0  0  0  0  0999 V2000
   -1.5266    2.0075    0.1396 C   0  0  0  0  0  0  0  0  0  0  0  0
   -2.8319    1.2939   -0.0343 C   0  0  0  0  0  0  0  0  0  0  0  0
   -4.0219    1.8372   -0.1954 O   0  0  0  0  0  0  0  0  0  0  0  0
   -4.8642    1.0520    0.4257 N   0  0  0  0  0  0  0  0  0  0  0  0
   -4.3358   -0.1926    0.5271 C   0  0  0  0  0  0  0  0  0  0  0  0
   -3.0594   -0.0791   -0.0154 C   0  0  0  0  0  0  0  0  0  0  0  0
   -2.0234   -1.0975    0.2129 C   0  0  0  0  0  0  0  0  0  0  0  0
   -2.1916   -2.0409    1.0453 O   0  0  0  0  0  0  0  0  0  0  0  0
   -0.8735   -1.2324   -0.5986 N   0  0  0  0  0  0  0  0  0  0  0  0
    0.3921   -1.5258    0.0099 C   0  0  0  0  0  0  0  0  0  0  0  0
    1.4942   -1.8858   -0.7594 C   0  0  0  0  0  0  0  0  0  0  0  0
    2.7318   -1.2853   -0.5457 C   0  0  0  0  0  0  0  0  0  0  0  0
    2.9081   -0.3144    0.4351 C   0  0  0  0  0  0  0  0  0  0  0  0
    3.7091    0.9180    0.1456 C   0  0  0  0  0  0  0  0  0  0  0  0
    4.9643    0.5034   -0.2274 F   0  0  0  0  0  0  0  0  0  0  0  0
    3.1368    1.6801   -0.8487 F   0  0  0  0  0  0  0  0  0  0  0  0
    3.7117    1.6878    1.2861 F   0  0  0  0  0  0  0  0  0  0  0  0
    1.9269   -0.2982    1.4198 C   0  0  0  0  0  0  0  0  0  0  0  0
    0.7532   -1.0278    1.2574 C   0  0  0  0  0  0  0  0  0  0  0  0
  1  2  1  0
  2  3  1  0
  3  4  1  0
  4  5  2  0
  5  6  1  0
  6  7  1  0
  7  8  2  0
  7  9  1  0
  9 10  1  0
 10 11  2  0
 11 12  1  0
 12 13  2  0
 13 14  1  0
 14 15  1  0
 14 16  1  0
 14 17  1  0
 13 18  1  0
 18 19  2  0
  6  2  2  0
 19 10  1  0
M  END
>  <zinc_id>  (1) 
ZINC000000004840

>  <smiles>  (1) 
Cc1oncc1C(=O)Nc1ccc(C(F)(F)F)cc1

$$$$
