
     RDKit          3D

  8  8  0  0  0  0  0  0  0  0999 V2000
   -2.2396   -0.3367    0.9096 O   0  0  0  0  0  0  0  0  0  0  0  0
   -1.3832    0.2851    0.2570 C   0  0  0  0  0  0  0  0  0  0  0  0
   -1.5221    0.2708   -1.1026 O   0  0  0  0  0  0  0  0  0  0  0  0
    0.0973    0.0932    0.8687 C   0  0  2  0  0  0  0  0  0  0  0  0
    0.7609    1.1703   -0.1817 C   0  0  0  0  0  0  0  0  0  0  0  0
    2.1215    0.5338   -0.2010 C   0  0  0  0  0  0  0  0  0  0  0  0
    1.7513   -0.8928   -0.4732 C   0  0  0  0  0  0  0  0  0  0  0  0
    0.4137   -1.1237   -0.0769 N   0  0  0  0  0  0  0  0  0  0  0  0
  1  2  2  0
  2  3  1  0
  4  2  1  6
  4  5  1  0
  5  6  1  0
  6  7  1  0
  7  8  1  0
  8  4  1  0
M  END
>  <zinc_id>  (1) 
ZINC000000895360

>  <smiles>  (1) 
O=C(O)[C@@H]1CCCN1

$$$$
