REMARK SMILES C/C(=C\c1csc(C)n1)[C@H]1C[C@@H]2O[C@]2(C)CCC[C@H](C)[C@H](O)[C@@H](C)C(=O)C(C)(C)[C@H](O)CC(=O)O1
REMARK SMILES IDX 16 1 14 2 12 3 13 4 15 5 11 6 10 7 2 8 1 9 3 10 4 11 5 12
REMARK SMILES IDX 9 13 6 14 7 15 8 16 35 17 33 18 34 19 32 20 30 21 31 22
REMARK SMILES IDX 17 24 18 25 19 26 20 27 21 28 22 29 23 30 24 31 25 32 26 33
REMARK SMILES IDX 27 34 28 35 29 36
REMARK H PARENT
REMARK Flexibility Score: 40.00
ROOT
ATOM      1  C   UNL     1      -1.134  -1.550  -1.473  1.00  0.00    -0.022 C 
ENDROOT
BRANCH   1   2
ATOM      2  C   UNL     1      -0.127  -2.428  -2.043  1.00  0.00     0.092 C 
ATOM      3  C   UNL     1       1.185  -2.590  -1.105  1.00  0.00     0.091 C 
ATOM      4  O   UNL     1       1.214  -1.655  -2.413  1.00  0.00    -0.366 OA
ATOM      5  C   UNL     1      -0.274  -3.367  -3.149  1.00  0.00    -0.033 C 
BRANCH   3   6
ATOM      6  C   UNL     1       0.763  -1.409   0.004  1.00  0.00     0.018 C 
BRANCH   6   7
ATOM      7  C   UNL     1       1.299  -0.037  -0.739  1.00  0.00     0.126 C 
BRANCH   7   8
ATOM      8  C   UNL     1       2.605   0.064   0.232  1.00  0.00    -0.031 C 
ATOM      9  C   UNL     1       2.732   0.960   0.964  1.00  0.00    -0.040 C 
ATOM     10  C   UNL     1       3.599  -0.041  -0.665  1.00  0.00    -0.033 C 
BRANCH  10  11
ATOM     11  C   UNL     1       5.001   0.147  -0.272  1.00  0.00     0.074 A 
ATOM     12  C   UNL     1       5.745   1.248  -0.683  1.00  0.00     0.018 A 
ATOM     13  N   UNL     1       5.745  -0.872   0.107  1.00  0.00    -0.242 NA
ATOM     14  S   UNL     1       7.185   1.006   0.220  1.00  0.00    -0.127 S 
ATOM     15  C   UNL     1       6.829  -0.569   0.799  1.00  0.00     0.090 A 
ATOM     16  C   UNL     1       7.459  -1.198   2.002  1.00  0.00    -0.012 C 
ENDBRANCH  10  11
ENDBRANCH   7   8
BRANCH   7  17
ATOM     17  O   UNL     1       0.426   0.836   0.113  1.00  0.00    -0.458 OA
BRANCH  17  18
ATOM     18  C   UNL     1       0.670   2.164  -0.249  1.00  0.00     0.309 C 
ATOM     19  O   UNL     1       0.397   2.814  -1.263  1.00  0.00    -0.252 OA
BRANCH  18  20
ATOM     20  C   UNL     1      -0.291   2.291   0.813  1.00  0.00     0.072 C 
BRANCH  20  21
ATOM     21  C   UNL     1      -1.731   2.756   0.144  1.00  0.00     0.076 CG0
ATOM     22  O   UNL     1      -1.629   1.639  -0.886  1.00  0.00    -0.392 OA
ATOM     23  G   UNL     1      -2.667   1.909   1.190  1.00  0.00     0.000 G0
ENDBRANCH  20  21
ENDBRANCH  18  20
ENDBRANCH  17  18
ENDBRANCH   7  17
ENDBRANCH   6   7
ENDBRANCH   3   6
ENDBRANCH   1   2
BRANCH   1  24
ATOM     24  C   UNL     1      -2.125  -2.498  -0.977  1.00  0.00    -0.050 C 
BRANCH  24  25
ATOM     25  C   UNL     1      -3.386  -2.299  -0.458  1.00  0.00    -0.048 C 
BRANCH  25  26
ATOM     26  C   UNL     1      -3.445  -1.315   0.819  1.00  0.00    -0.017 C 
ATOM     27  C   UNL     1      -3.855  -2.501   1.844  1.00  0.00    -0.060 C 
BRANCH  26  28
ATOM     28  C   UNL     1      -5.081  -0.918   0.573  1.00  0.00     0.066 C 
ATOM     29  O   UNL     1      -4.908  -0.526  -0.863  1.00  0.00    -0.392 OA
BRANCH  28  30
ATOM     30  C   UNL     1      -4.937   0.697   1.119  1.00  0.00     0.042 C 
ATOM     31  C   UNL     1      -4.305   0.224   2.536  1.00  0.00    -0.053 C 
BRANCH  30  32
ATOM     32  C   UNL     1      -3.533   1.027   0.427  1.00  0.00     0.146 C 
ATOM     33  O   UNL     1      -3.895   1.521  -0.649  1.00  0.00    -0.299 OA
BRANCH  32  34
ATOM     34  C   UNL     1      -2.667   1.909   1.190  1.00  0.00     0.050 CG0
ATOM     35  C   UNL     1      -3.604   3.029   1.654  1.00  0.00    -0.050 C 
ATOM     36  C   UNL     1      -1.927   1.440   2.326  1.00  0.00    -0.050 C 
ATOM     37  G   UNL     1      -1.731   2.756   0.144  1.00  0.00     0.000 G0
ENDBRANCH  32  34
ENDBRANCH  30  32
ENDBRANCH  28  30
ENDBRANCH  26  28
ENDBRANCH  25  26
ENDBRANCH  24  25
ENDBRANCH   1  24
TORSDOF 2

