
     RDKit          3D

  6  6  0  0  0  0  0  0  0  0999 V2000
    2.0957    0.0882   -0.6881 C   0  0  0  0  0  0  0  0  0  0  0  0
    0.6870    0.0875   -0.2247 C   0  0  0  0  0  0  0  0  0  0  0  0
    0.0045    0.9163    0.6181 C   0  0  0  0  0  0  0  0  0  0  0  0
   -1.2695    0.4539    0.6569 N   0  0  0  0  0  0  0  0  0  0  0  0
   -1.3850   -0.5217   -0.2453 N   0  0  0  0  0  0  0  0  0  0  0  0
   -0.1326   -1.0241   -0.3745 C   0  0  0  0  0  0  0  0  0  0  0  0
  1  2  1  0
  2  3  1  0
  3  4  2  0
  4  5  1  0
  5  6  1  0
  6  2  2  0
M  END
>  <zinc_id>  (1) 
ZINC000000897288

>  <smiles>  (1) 
Cc1cn[nH]c1

$$$$
