
     RDKit          3D

 19 21  0  0  0  0  0  0  0  0999 V2000
    4.9936   -0.3655   -0.3175 O   0  0  0  0  0  0  0  0  0  0  0  0
    3.9012    0.0586    0.1694 C   0  0  0  0  0  0  0  0  0  0  0  0
    3.9747    1.3389    0.7276 O   0  0  0  0  0  0  0  0  0  0  0  0
    2.6770   -0.3607   -0.5442 C   0  0  0  0  0  0  0  0  0  0  0  0
    1.4702   -0.1555    0.2415 N   0  0  0  0  0  0  0  0  0  0  0  0
    0.7688    1.0798    0.0532 C   0  0  0  0  0  0  0  0  0  0  0  0
    1.3445    2.0084   -0.5909 O   0  0  0  0  0  0  0  0  0  0  0  0
   -0.6719    1.1501    0.3318 C   0  0  0  0  0  0  0  0  0  0  0  0
   -1.3497    2.3225    0.0475 C   0  0  0  0  0  0  0  0  0  0  0  0
   -2.7161    2.3705    0.1667 C   0  0  0  0  0  0  0  0  0  0  0  0
   -3.4514    1.2122    0.1512 C   0  0  0  0  0  0  0  0  0  0  0  0
   -2.7855    0.0158    0.1597 C   0  0  0  0  0  0  0  0  0  0  0  0
   -3.4331   -1.1270   -0.2936 C   0  0  0  0  0  0  0  0  0  0  0  0
   -2.8122   -2.3233   -0.0308 C   0  0  0  0  0  0  0  0  0  0  0  0
   -1.5753   -2.3494    0.5981 C   0  0  0  0  0  0  0  0  0  0  0  0
   -0.7858   -1.2110    0.6969 C   0  0  0  0  0  0  0  0  0  0  0  0
   -1.4347   -0.0005    0.4834 C   0  0  0  0  0  0  0  0  0  0  0  0
    0.6770   -1.2680    0.6747 C   0  0  0  0  0  0  0  0  0  0  0  0
    1.2088   -2.3960    0.7051 O   0  0  0  0  0  0  0  0  0  0  0  0
  1  2  2  0
  2  3  1  0
  2  4  1  0
  4  5  1  0
  5  6  1  0
  6  7  2  0
  6  8  1  0
  8  9  1  0
  9 10  2  0
 10 11  1  0
 11 12  2  0
 12 13  1  0
 13 14  2  0
 14 15  1  0
 15 16  2  0
 16 17  1  0
 16 18  1  0
 18 19  2  0
 18  5  1  0
 17  8  2  0
 17 12  1  0
M  END
>  <zinc_id>  (1) 
ZINC000003871501

>  <smiles>  (1) 
O=C(O)CN1C(=O)c2cccc3cccc(c23)C1=O

$$$$
