REMARK SMILES Cc1ccc(NC(=O)Nc2cc(C(F)(F)F)ccc2F)cc1Nc1ccc2c(c1)NC(=O)/C2=C\c1ccc[nH]1
REMARK SMILES IDX 1 1 2 2 3 3 4 4 5 5 21 6 22 7 23 8 24 9 25 10 29 11 26 12
REMARK SMILES IDX 28 13 27 14 30 15 33 16 31 17 34 18 32 19 35 20 36 21 39 22
REMARK SMILES IDX 37 23 38 24 6 25 7 26 8 27 9 28 10 29 11 30 19 31 12 32
REMARK SMILES IDX 18 33 20 34 17 35 13 36 14 37 15 38 16 39
REMARK H PARENT
REMARK Flexibility Score: inf
ROOT
ATOM      1  C   UNL     1      -1.018  -4.269  -0.942  1.00  0.00    -0.038 C 
ATOM      2  C   UNL     1       0.088  -3.392  -0.500  1.00  0.00    -0.027 A 
ATOM      3  C   UNL     1       1.421  -3.772  -0.541  1.00  0.00    -0.055 A 
ATOM      4  C   UNL     1       2.449  -2.880  -0.261  1.00  0.00    -0.038 A 
ATOM      5  C   UNL     1       2.136  -1.557   0.031  1.00  0.00     0.044 A 
ATOM      6  C   UNL     1       0.837  -1.355   0.481  1.00  0.00    -0.015 A 
ATOM      7  C   UNL     1      -0.217  -2.153   0.050  1.00  0.00     0.043 A 
ENDROOT
BRANCH   7   8
ATOM      8  N   UNL     1      -1.569  -1.840   0.333  1.00  0.00    -0.355 N 
BRANCH   8   9
ATOM      9  C   UNL     1      -2.343  -0.933  -0.464  1.00  0.00     0.041 A 
ATOM     10  C   UNL     1      -2.482   0.400  -0.094  1.00  0.00    -0.038 A 
ATOM     11  C   UNL     1      -3.289  -1.385  -1.376  1.00  0.00    -0.014 A 
ATOM     12  C   UNL     1      -3.692   1.055  -0.284  1.00  0.00    -0.050 A 
ATOM     13  C   UNL     1      -4.548  -0.802  -1.460  1.00  0.00     0.051 A 
ATOM     14  C   UNL     1      -4.793   0.398  -0.805  1.00  0.00     0.011 A 
ATOM     15  N   UNL     1      -5.801  -1.198  -2.021  1.00  0.00    -0.321 N 
ATOM     16  C   UNL     1      -6.240   0.618  -0.701  1.00  0.00     0.051 C 
ATOM     17  C   UNL     1      -6.841  -0.562  -1.305  1.00  0.00     0.256 C 
ATOM     18  C   UNL     1      -6.832   1.415   0.168  1.00  0.00    -0.025 C 
ATOM     19  O   UNL     1      -8.047  -0.880  -1.148  1.00  0.00    -0.269 OA
BRANCH  18  20
ATOM     20  C   UNL     1      -8.280   1.494   0.170  1.00  0.00     0.039 A 
ATOM     21  C   UNL     1      -9.059   2.285  -0.631  1.00  0.00    -0.037 A 
ATOM     22  N   UNL     1      -9.066   1.032   1.169  1.00  0.00    -0.362 N 
ATOM     23  C   UNL     1     -10.351   2.212  -0.161  1.00  0.00    -0.044 A 
ATOM     24  C   UNL     1     -10.313   1.529   1.033  1.00  0.00     0.001 A 
ENDBRANCH  18  20
ENDBRANCH   8   9
ENDBRANCH   7   8
BRANCH   5  25
ATOM     25  N   UNL     1       2.929  -0.474  -0.475  1.00  0.00    -0.308 N 
ATOM     26  C   UNL     1       3.879   0.073   0.424  1.00  0.00     0.323 C 
ATOM     27  O   UNL     1       4.687  -0.746   0.946  1.00  0.00    -0.248 OA
ATOM     28  N   UNL     1       4.206   1.449   0.503  1.00  0.00    -0.305 N 
BRANCH  28  29
ATOM     29  C   UNL     1       5.566   1.899   0.470  1.00  0.00     0.079 A 
ATOM     30  C   UNL     1       6.581   1.122   1.007  1.00  0.00    -0.023 A 
ATOM     31  C   UNL     1       5.904   2.698  -0.615  1.00  0.00     0.146 A 
ATOM     32  C   UNL     1       7.881   1.201   0.565  1.00  0.00     0.058 A 
ATOM     33  C   UNL     1       7.216   2.932  -0.942  1.00  0.00    -0.024 A 
ATOM     34  F   UNL     1       4.944   3.270  -1.387  1.00  0.00    -0.205 F 
ATOM     35  C   UNL     1       8.196   2.085  -0.457  1.00  0.00    -0.047 A 
BRANCH  32  36
ATOM     36  C   UNL     1       8.805   0.035   0.724  1.00  0.00     0.416 C 
ATOM     37  F   UNL     1      10.122   0.418   0.739  1.00  0.00    -0.166 F 
ATOM     38  F   UNL     1       8.507  -0.843  -0.289  1.00  0.00    -0.166 F 
ATOM     39  F   UNL     1       8.425  -0.579   1.913  1.00  0.00    -0.166 F 
ENDBRANCH  32  36
ENDBRANCH  28  29
ENDBRANCH   5  25
TORSDOF 6

