REMARK SMILES CC(C)NC(=O)N1CC[C@H](/N=C2/Nc3cc(F)ccc3N(CC(F)F)c3ccc(Cl)cc32)C1
REMARK SMILES IDX 11 1 12 2 13 3 14 4 15 5 16 6 17 7 18 8 19 9 20 10 21 11
REMARK SMILES IDX 26 12 27 13 28 14 29 15 30 16 31 17 32 18 10 19 7 20 8 21
REMARK SMILES IDX 33 22 9 23 5 24 4 25 6 26 2 27 1 28 3 29 22 30 23 31 24 32
REMARK SMILES IDX 25 33
REMARK H PARENT
REMARK Flexibility Score: inf
ROOT
ATOM      1  N   UNL     1       0.898   0.884   0.343  1.00  0.00    -0.262 NA
ATOM      2  C   UNL     1      -0.340   0.590   0.186  1.00  0.00     0.135 C 
ATOM      3  N   UNL     1      -1.283   1.611  -0.124  1.00  0.00    -0.338 N 
ATOM      4  C   UNL     1      -2.681   1.536  -0.419  1.00  0.00     0.067 A 
ATOM      5  C   UNL     1      -3.238   2.752  -0.786  1.00  0.00    -0.001 A 
ATOM      6  C   UNL     1      -4.576   2.759  -1.167  1.00  0.00     0.125 A 
ATOM      7  F   UNL     1      -5.367   3.860  -1.000  1.00  0.00    -0.207 F 
ATOM      8  C   UNL     1      -5.089   1.554  -1.631  1.00  0.00    -0.024 A 
ATOM      9  C   UNL     1      -4.629   0.337  -1.142  1.00  0.00    -0.033 A 
ATOM     10  C   UNL     1      -3.445   0.375  -0.450  1.00  0.00     0.065 A 
ATOM     11  N   UNL     1      -3.119  -0.844   0.230  1.00  0.00    -0.333 N 
ATOM     12  C   UNL     1      -1.855  -1.374   0.647  1.00  0.00     0.052 A 
ATOM     13  C   UNL     1      -1.925  -2.749   0.841  1.00  0.00    -0.036 A 
ATOM     14  C   UNL     1      -0.791  -3.518   0.603  1.00  0.00    -0.041 A 
ATOM     15  C   UNL     1       0.314  -3.020  -0.070  1.00  0.00     0.041 A 
ATOM     16  Cl  UNL     1       1.130  -3.943  -1.329  1.00  0.00    -0.084 Cl
ATOM     17  C   UNL     1       0.474  -1.640   0.004  1.00  0.00    -0.030 A 
ATOM     18  C   UNL     1      -0.605  -0.839   0.357  1.00  0.00     0.042 A 
ENDROOT
BRANCH   1  19
ATOM     19  C   UNL     1       1.880  -0.136  -0.402  1.00  0.00     0.072 C 
ATOM     20  N   UNL     1       4.160  -0.052  -0.351  1.00  0.00    -0.323 N 
ATOM     21  C   UNL     1       3.774   0.483  -1.631  1.00  0.00     0.024 C 
ATOM     22  C   UNL     1       3.128   0.231   0.643  1.00  0.00     0.045 C 
ATOM     23  C   UNL     1       2.380   1.054  -1.460  1.00  0.00    -0.011 C 
BRANCH  20  24
ATOM     24  C   UNL     1       5.521  -0.322  -0.010  1.00  0.00     0.317 C 
ATOM     25  N   UNL     1       6.537   0.568  -0.465  1.00  0.00    -0.336 N 
ATOM     26  O   UNL     1       5.857  -1.162   0.857  1.00  0.00    -0.249 OA
BRANCH  25  27
ATOM     27  C   UNL     1       7.683   0.948   0.318  1.00  0.00     0.025 C 
ATOM     28  C   UNL     1       8.054   2.263  -0.016  1.00  0.00    -0.045 C 
ATOM     29  C   UNL     1       7.423   0.882   1.811  1.00  0.00    -0.045 C 
ENDBRANCH  25  27
ENDBRANCH  20  24
ENDBRANCH   1  19
BRANCH  11  30
ATOM     30  C   UNL     1      -4.282  -1.655   0.521  1.00  0.00     0.084 C 
BRANCH  30  31
ATOM     31  C   UNL     1      -5.088  -0.974   1.618  1.00  0.00     0.256 C 
ATOM     32  F   UNL     1      -6.381  -0.701   1.219  1.00  0.00    -0.208 F 
ATOM     33  F   UNL     1      -4.521   0.242   1.984  1.00  0.00    -0.208 F 
ENDBRANCH  30  31
ENDBRANCH  11  30
TORSDOF 5

