REMARK SMILES CCCCCCCCO
REMARK SMILES IDX 5 1 4 2 3 3 2 4 1 5 6 6 7 7 8 8 9 9
REMARK H PARENT
REMARK Flexibility Score: inf
ROOT
ATOM      1  C   UNL     1       0.285   0.016   0.205  1.00  0.00    -0.053 C 
ENDROOT
BRANCH   1   2
ATOM      2  C   UNL     1       1.039   1.174  -0.388  1.00  0.00    -0.053 C 
BRANCH   2   3
ATOM      3  C   UNL     1       2.458   1.099   0.165  1.00  0.00    -0.054 C 
BRANCH   3   4
ATOM      4  C   UNL     1       2.752  -0.332   0.590  1.00  0.00    -0.056 C 
ATOM      5  C   UNL     1       4.149  -0.755   0.185  1.00  0.00    -0.065 C 
ENDBRANCH   3   4
ENDBRANCH   2   3
ENDBRANCH   1   2
BRANCH   1   6
ATOM      6  C   UNL     1      -1.103  -0.143  -0.347  1.00  0.00    -0.051 C 
BRANCH   6   7
ATOM      7  C   UNL     1      -2.120  -0.260   0.775  1.00  0.00    -0.030 C 
BRANCH   7   8
ATOM      8  C   UNL     1      -3.462   0.111   0.214  1.00  0.00     0.043 C 
ATOM      9  O   UNL     1      -3.998  -0.910  -0.555  1.00  0.00    -0.396 OA
ENDBRANCH   7   8
ENDBRANCH   6   7
ENDBRANCH   1   6
TORSDOF 6

