
     RDKit          3D

 28 31  0  0  0  0  0  0  0  0999 V2000
    5.7850    1.4660   -2.2730 C   0  0  0  0  0  0  0  0  0  0  0  0
    5.3604    0.7860   -1.8736 O   0  0  0  0  0  0  0  0  0  0  0  0
    4.2723   -0.0190   -1.6197 C   0  0  0  0  0  0  0  0  0  0  0  0
    4.4041   -1.3706   -1.8648 C   0  0  0  0  0  0  0  0  0  0  0  0
    3.4785   -2.2853   -1.4317 C   0  0  0  0  0  0  0  0  0  0  0  0
    2.4766   -1.8267   -0.5854 C   0  0  0  0  0  0  0  0  0  0  0  0
    2.7098   -0.5951    0.0165 C   0  0  0  0  0  0  0  0  0  0  0  0
    1.8694   -0.2620    1.1518 C   0  0  0  0  0  0  0  0  0  0  0  0
    2.3537   -0.1340    2.4477 C   0  0  0  0  0  0  0  0  0  0  0  0
    1.5088    0.3154    3.4546 C   0  0  0  0  0  0  0  0  0  0  0  0
    1.6655   -0.1335    4.7332 F   0  0  0  0  0  0  0  0  0  0  0  0
    0.4397    1.0830    3.0491 C   0  0  0  0  0  0  0  0  0  0  0  0
   -0.1716    0.7750    1.8355 C   0  0  0  0  0  0  0  0  0  0  0  0
    0.6056    0.1950    0.9037 C   0  0  0  0  0  0  0  0  0  0  0  0
   -0.1168   -0.4802   -0.3935 C   0  0  1  0  0  0  0  0  0  0  0  0
   -1.4272   -1.0412    0.4745 C   0  0  0  0  0  0  0  0  0  0  0  0
   -2.6095   -0.7782   -0.3707 C   0  0  0  0  0  0  0  0  0  0  0  0
   -3.6189   -1.6625   -0.5691 N   0  0  0  0  0  0  0  0  0  0  0  0
   -4.8093   -1.2371   -1.0667 C   0  0  0  0  0  0  0  0  0  0  0  0
   -5.4808   -1.9835   -2.0925 N   0  0  0  0  0  0  0  0  0  0  0  0
   -5.2532   -0.0171   -0.6693 N   0  0  0  0  0  0  0  0  0  0  0  0
   -4.3384    0.9352   -0.3541 C   0  0  0  0  0  0  0  0  0  0  0  0
   -4.6091    2.3934   -0.4933 C   0  0  0  0  0  0  0  0  0  0  0  0
   -3.0446    0.5408   -0.2180 C   0  0  0  0  0  0  0  0  0  0  0  0
   -1.8683    1.4226   -0.1959 C   0  0  0  0  0  0  0  0  0  0  0  0
   -2.0808    2.6628   -0.3583 O   0  0  0  0  0  0  0  0  0  0  0  0
   -0.7431    0.9146   -0.8234 N   0  0  0  0  0  0  0  0  0  0  0  0
    3.2421    0.3362   -0.8136 N   0  0  0  0  0  0  0  0  0  0  0  0
  1  2  1  0
  2  3  1  0
  3  4  2  0
  4  5  1  0
  5  6  2  0
  6  7  1  0
  7  8  1  0
  8  9  2  0
  9 10  1  0
 10 11  1  0
 10 12  2  0
 12 13  1  0
 13 14  2  0
 15 14  1  1
 15 16  1  0
 16 17  1  0
 17 18  2  0
 18 19  1  0
 19 20  1  0
 19 21  2  0
 21 22  1  0
 22 23  1  0
 22 24  2  0
 24 25  1  0
 25 26  2  0
 25 27  1  0
  7 28  2  0
 28  3  1  0
 14  8  1  0
 27 15  1  0
 24 17  1  0
M  END
>  <zinc_id>  (1) 
ZINC000060329723

>  <smiles>  (1) 
COc1cccc(-c2cc(F)ccc2[C@H]2Cc3nc(N)nc(C)c3C(=O)N2)n1

$$$$
