
     RDKit          3D

 10  9  0  0  0  0  0  0  0  0999 V2000
    3.2134    0.2873    0.4845 C   0  0  0  0  0  0  0  0  0  0  0  0
    1.8719   -0.0872    0.0337 C   0  0  0  0  0  0  0  0  0  0  0  0
    1.6841   -1.1167   -0.6821 O   0  0  0  0  0  0  0  0  0  0  0  0
    0.8109    0.8118   -0.3048 N   0  0  0  0  0  0  0  0  0  0  0  0
   -0.4596    0.3984    0.5444 C   0  0  1  0  0  0  0  0  0  0  0  0
   -1.4416    1.2998   -0.4341 C   0  0  0  0  0  0  0  0  0  0  0  0
   -2.2918    2.4367    0.6671 S   0  0  0  0  0  0  0  0  0  0  0  0
   -0.7374   -0.9884   -0.2517 C   0  0  0  0  0  0  0  0  0  0  0  0
   -0.5884   -1.8895    0.6443 O   0  0  0  0  0  0  0  0  0  0  0  0
   -2.0615   -1.1521   -0.7014 O   0  0  0  0  0  0  0  0  0  0  0  0
  1  2  1  0
  2  3  2  0
  2  4  1  0
  5  4  1  6
  5  6  1  0
  6  7  1  0
  5  8  1  0
  8  9  2  0
  8 10  1  0
M  END
>  <zinc_id>  (1) 
ZINC000003589203

>  <smiles>  (1) 
CC(=O)N[C@@H](CS)C(=O)O

$$$$
