
     RDKit          3D

 38 43  0  0  0  0  0  0  0  0999 V2000
    9.0617   -1.3166   -1.3306 C   0  0  0  0  0  0  0  0  0  0  0  0
    7.6026   -1.2278   -1.0515 C   0  0  0  0  0  0  0  0  0  0  0  0
    6.8074   -2.2692   -0.7177 N   0  0  0  0  0  0  0  0  0  0  0  0
    5.6328   -1.7307   -0.3437 C   0  0  0  0  0  0  0  0  0  0  0  0
    5.7565   -0.3501   -0.4050 C   0  0  0  0  0  0  0  0  0  0  0  0
    6.8826   -0.0884   -1.0734 N   0  0  0  0  0  0  0  0  0  0  0  0
    4.8860    0.6153    0.2738 C   0  0  0  0  0  0  0  0  0  0  0  0
    5.3166    1.8926    0.0011 C   0  0  0  0  0  0  0  0  0  0  0  0
    4.6446    2.9333    0.6075 C   0  0  0  0  0  0  0  0  0  0  0  0
    3.7519    2.6709    1.6389 C   0  0  0  0  0  0  0  0  0  0  0  0
    3.2229    1.3971    1.8051 C   0  0  0  0  0  0  0  0  0  0  0  0
    3.7134    0.3961    0.9776 C   0  0  0  0  0  0  0  0  0  0  0  0
    3.0935   -0.8668    1.1682 N   0  0  0  0  0  0  0  0  0  0  0  0
    1.7861   -0.7708    1.7419 C   0  0  0  0  0  0  0  0  0  0  0  0
    1.2822   -1.7884    2.2937 O   0  0  0  0  0  0  0  0  0  0  0  0
    0.8906    0.2317    1.1575 C   0  0  0  0  0  0  0  0  0  0  0  0
   -0.0644    0.8717    1.9187 C   0  0  0  0  0  0  0  0  0  0  0  0
   -1.1998    1.3957    1.3123 C   0  0  0  0  0  0  0  0  0  0  0  0
   -1.4558    1.2457   -0.0392 C   0  0  0  0  0  0  0  0  0  0  0  0
   -2.8140    0.9608   -0.4007 N   0  0  0  0  0  0  0  0  0  0  0  0
   -3.2234   -0.2882   -0.9165 C   0  0  0  0  0  0  0  0  0  0  0  0
   -2.3750   -0.9066   -1.6286 O   0  0  0  0  0  0  0  0  0  0  0  0
   -4.3211   -1.0818   -0.3557 C   0  0  0  0  0  0  0  0  0  0  0  0
   -4.1739   -2.4427   -0.1137 C   0  0  0  0  0  0  0  0  0  0  0  0
   -5.3181   -3.2305   -0.0710 C   0  0  0  0  0  0  0  0  0  0  0  0
   -6.5522   -2.7241   -0.4587 C   0  0  0  0  0  0  0  0  0  0  0  0
   -6.6996   -1.3486   -0.5057 C   0  0  0  0  0  0  0  0  0  0  0  0
   -5.5898   -0.5175   -0.4103 C   0  0  0  0  0  0  0  0  0  0  0  0
   -5.6992    0.8718    0.0528 C   0  0  0  0  0  0  0  0  0  0  0  0
   -6.2264    1.0345    1.3287 C   0  0  0  0  0  0  0  0  0  0  0  0
   -6.9696    2.1305    1.6980 C   0  0  0  0  0  0  0  0  0  0  0  0
   -7.2936    3.0756    0.7622 C   0  0  0  0  0  0  0  0  0  0  0  0
   -6.7201    3.0071   -0.4908 C   0  0  0  0  0  0  0  0  0  0  0  0
   -6.0559    1.8500   -0.8643 C   0  0  0  0  0  0  0  0  0  0  0  0
   -0.4544    0.6497   -0.7949 C   0  0  0  0  0  0  0  0  0  0  0  0
    0.7780    0.3796   -0.2182 C   0  0  0  0  0  0  0  0  0  0  0  0
    3.7262   -2.1816    1.1917 C   0  0  0  0  0  0  0  0  0  0  0  0
    4.3708   -2.4794   -0.1395 C   0  0  0  0  0  0  0  0  0  0  0  0
  1  2  1  0
  2  3  2  0
  3  4  1  0
  4  5  2  0
  5  6  1  0
  5  7  1  0
  7  8  2  0
  8  9  1  0
  9 10  2  0
 10 11  1  0
 11 12  2  0
 12 13  1  0
 13 14  1  0
 14 15  2  0
 14 16  1  0
 16 17  2  0
 17 18  1  0
 18 19  2  0
 19 20  1  0
 20 21  1  0
 21 22  2  0
 21 23  1  0
 23 24  2  0
 24 25  1  0
 25 26  2  0
 26 27  1  0
 27 28  2  0
 28 29  1  0
 29 30  2  0
 30 31  1  0
 31 32  2  0
 32 33  1  0
 33 34  2  0
 19 35  1  0
 35 36  2  0
 13 37  1  0
 37 38  1  0
  6  2  1  0
 12  7  1  0
 36 16  1  0
 38  4  1  0
 28 23  1  0
 34 29  1  0
M  END
>  <zinc_id>  (1) 
ZINC000012503187

>  <smiles>  (1) 
Cc1nc2c([nH]1)-c1ccccc1N(C(=O)c1ccc(NC(=O)c3ccccc3-c3ccccc3)cc1)CC2

$$$$
