
     RDKit          3D

 29 31  0  0  0  0  0  0  0  0999 V2000
   -1.1265    1.0937    2.8815 C   0  0  0  0  0  0  0  0  0  0  0  0
   -2.1098    0.4220    1.9482 C   0  0  0  0  0  0  0  0  0  0  0  0
   -1.6539    0.5497    0.5514 C   0  0  0  0  0  0  0  0  0  0  0  0
   -1.0215   -0.4708    0.0070 C   0  0  0  0  0  0  0  0  0  0  0  0
   -1.1415   -1.8447    0.5115 C   0  0  0  0  0  0  0  0  0  0  0  0
   -0.7492   -2.2255    1.7658 C   0  0  0  0  0  0  0  0  0  0  0  0
   -1.3963   -3.2913    2.3779 C   0  0  0  0  0  0  0  0  0  0  0  0
   -2.5720   -3.8207    1.8621 C   0  0  0  0  0  0  0  0  0  0  0  0
   -3.6236   -4.2236    2.6880 O   0  0  0  0  0  0  0  0  0  0  0  0
   -2.7697   -3.6466    0.4968 C   0  0  0  0  0  0  0  0  0  0  0  0
   -2.0771   -2.6342   -0.1476 C   0  0  0  0  0  0  0  0  0  0  0  0
   -0.1700   -0.2906   -1.1775 C   0  0  0  0  0  0  0  0  0  0  0  0
    0.8733   -1.1690   -1.4517 C   0  0  0  0  0  0  0  0  0  0  0  0
    2.1395   -0.6988   -1.7828 C   0  0  0  0  0  0  0  0  0  0  0  0
    2.3274    0.6385   -2.1108 C   0  0  0  0  0  0  0  0  0  0  0  0
    3.5152    1.2688   -1.7230 O   0  0  0  0  0  0  0  0  0  0  0  0
    3.9635    1.2612   -0.3829 C   0  0  0  0  0  0  0  0  0  0  0  0
    5.4451    1.0503   -0.2611 C   0  0  0  0  0  0  0  0  0  0  0  0
    5.7897   -0.1004    0.5534 N   0  0  0  0  0  0  0  0  0  0  0  0
    7.2496   -0.1404    0.6037 C   0  0  0  0  0  0  0  0  0  0  0  0
    5.3228    0.0716    1.9273 C   0  0  0  0  0  0  0  0  0  0  0  0
    1.1585    1.3584   -2.3302 C   0  0  0  0  0  0  0  0  0  0  0  0
   -0.0585    0.9478   -1.7995 C   0  0  0  0  0  0  0  0  0  0  0  0
   -2.1218    1.6077   -0.3534 C   0  0  0  0  0  0  0  0  0  0  0  0
   -1.9301    2.9049    0.1080 C   0  0  0  0  0  0  0  0  0  0  0  0
   -2.3942    3.9081   -0.7337 C   0  0  0  0  0  0  0  0  0  0  0  0
   -3.4410    3.6616   -1.6133 C   0  0  0  0  0  0  0  0  0  0  0  0
   -4.0728    2.4337   -1.4630 C   0  0  0  0  0  0  0  0  0  0  0  0
   -3.3549    1.3786   -0.9521 C   0  0  0  0  0  0  0  0  0  0  0  0
  1  2  1  0
  2  3  1  0
  3  4  2  0
  4  5  1  0
  5  6  2  0
  6  7  1  0
  7  8  2  0
  8  9  1  0
  8 10  1  0
 10 11  2  0
  4 12  1  0
 12 13  2  0
 13 14  1  0
 14 15  2  0
 15 16  1  0
 16 17  1  0
 17 18  1  0
 18 19  1  0
 19 20  1  0
 19 21  1  0
 15 22  1  0
 22 23  2  0
  3 24  1  0
 24 25  2  0
 25 26  1  0
 26 27  2  0
 27 28  1  0
 28 29  2  0
 11  5  1  0
 23 12  1  0
 29 24  1  0
M  END
>  <zinc_id>  (1) 
ZINC000000902197

>  <smiles>  (1) 
CC/C(=C(\c1ccc(O)cc1)c1ccc(OCCN(C)C)cc1)c1ccccc1

$$$$
