
     RDKit          3D

 28 31  0  0  0  0  0  0  0  0999 V2000
    4.6311   -1.4520   -0.4363 C   0  0  0  0  0  0  0  0  0  0  0  0
    3.2836   -1.7525   -0.0262 N   0  0  0  0  0  0  0  0  0  0  0  0
    3.2517   -3.0030    0.7041 C   0  0  0  0  0  0  0  0  0  0  0  0
    1.9277   -3.6554    0.6011 C   0  0  0  0  0  0  0  0  0  0  0  0
    1.3241   -3.9213   -0.5491 C   0  0  0  0  0  0  0  0  0  0  0  0
   -0.1689   -3.9643   -0.6715 C   0  0  0  0  0  0  0  0  0  0  0  0
   -0.7016   -3.1949    0.5326 C   0  0  0  0  0  0  0  0  0  0  0  0
   -2.1026   -3.2164    0.5083 O   0  0  0  0  0  0  0  0  0  0  0  0
   -2.7944   -2.0590    0.1417 C   0  0  0  0  0  0  0  0  0  0  0  0
   -4.1701   -2.1214    0.3275 C   0  0  0  0  0  0  0  0  0  0  0  0
   -4.9366   -0.9967    0.1515 C   0  0  0  0  0  0  0  0  0  0  0  0
   -4.2837    0.1725   -0.1281 C   0  0  0  0  0  0  0  0  0  0  0  0
   -2.9041    0.2695   -0.2617 C   0  0  0  0  0  0  0  0  0  0  0  0
   -2.1405   -0.8562   -0.0995 C   0  0  0  0  0  0  0  0  0  0  0  0
   -2.2494    1.5326   -0.6250 C   0  0  0  0  0  0  0  0  0  0  0  0
   -3.0607    2.6252   -0.9070 C   0  0  0  0  0  0  0  0  0  0  0  0
   -2.6776    3.9178   -0.5669 C   0  0  0  0  0  0  0  0  0  0  0  0
   -1.4242    4.0157   -0.0565 N   0  0  0  0  0  0  0  0  0  0  0  0
   -0.5261    3.0166   -0.2410 C   0  0  0  0  0  0  0  0  0  0  0  0
   -0.9207    1.7344   -0.4410 N   0  0  0  0  0  0  0  0  0  0  0  0
    0.8269    3.4342   -0.4652 N   0  0  0  0  0  0  0  0  0  0  0  0
    1.7510    2.4383   -0.9186 C   0  0  0  0  0  0  0  0  0  0  0  0
    2.9913    2.8036   -1.4265 C   0  0  0  0  0  0  0  0  0  0  0  0
    4.1280    2.0841   -1.0808 C   0  0  0  0  0  0  0  0  0  0  0  0
    3.9597    1.1605   -0.0587 C   0  0  0  0  0  0  0  0  0  0  0  0
    2.7180    0.5535    0.0819 C   0  0  0  0  0  0  0  0  0  0  0  0
    1.5629    1.1690   -0.3844 C   0  0  0  0  0  0  0  0  0  0  0  0
    2.7054   -0.7344    0.8210 C   0  0  0  0  0  0  0  0  0  0  0  0
  1  2  1  0
  2  3  1  0
  3  4  1  0
  4  5  2  0
  5  6  1  0
  6  7  1  0
  7  8  1  0
  8  9  1  0
  9 10  1  0
 10 11  2  0
 11 12  1  0
 12 13  2  0
 13 14  1  0
 13 15  1  0
 15 16  1  0
 16 17  2  0
 17 18  1  0
 18 19  2  0
 19 20  1  0
 19 21  1  0
 21 22  1  0
 22 23  1  0
 23 24  2  0
 24 25  1  0
 25 26  2  0
 26 27  1  0
 26 28  1  0
 28  2  1  0
 14  9  2  0
 20 15  2  0
 27 22  2  0
M  END
>  <zinc_id>  (1) 
ZINC000068251500

>  <smiles>  (1) 
CN1C/C=C/CCOc2cccc(c2)-c2ccnc(n2)Nc2cccc(c2)C1

$$$$
