REMARK SMILES O=C(O)CC(O)(CC(=O)O)C(=O)O
REMARK SMILES IDX 5 1 6 2 4 3 2 4 1 5 3 6 7 7 8 8 9 9 10 10 11 11 12 12 13 13
REMARK H PARENT
REMARK Flexibility Score: inf
ROOT
ATOM      1  C   UNL     1       0.081  -0.204  -0.282  1.00  0.00     0.182 C 
ATOM      2  O   UNL     1      -0.217   0.498  -1.439  1.00  0.00    -0.377 OA
ENDROOT
BRANCH   1   3
ATOM      3  C   UNL     1       1.511  -0.136   0.138  1.00  0.00     0.086 C 
BRANCH   3   4
ATOM      4  C   UNL     1       1.970   1.178   0.608  1.00  0.00     0.306 C 
ATOM      5  O   UNL     1       2.531   1.915  -0.259  1.00  0.00    -0.252 OA
ATOM      6  O   UNL     1       2.611   1.190   1.853  1.00  0.00    -0.481 OA
ENDBRANCH   3   4
ENDBRANCH   1   3
BRANCH   1   7
ATOM      7  C   UNL     1      -0.879   0.219   0.790  1.00  0.00     0.086 C 
BRANCH   7   8
ATOM      8  C   UNL     1      -2.223   0.517   0.234  1.00  0.00     0.306 C 
ATOM      9  O   UNL     1      -3.099   0.961   1.021  1.00  0.00    -0.252 OA
ATOM     10  O   UNL     1      -2.622   0.077  -1.014  1.00  0.00    -0.481 OA
ENDBRANCH   7   8
ENDBRANCH   1   7
BRANCH   1  11
ATOM     11  C   UNL     1      -0.150  -1.671  -0.506  1.00  0.00     0.336 C 
ATOM     12  O   UNL     1       0.046  -2.380   0.529  1.00  0.00    -0.249 OA
ATOM     13  O   UNL     1       0.441  -2.165  -1.674  1.00  0.00    -0.479 OA
ENDBRANCH   1  11
TORSDOF 5

