REMARK SMILES c1ccc(-c2nn3c(c2-c2ccnc4cc(OCCN5CCOCC5)ccc24)CCC3)nc1
REMARK SMILES IDX 17 1 16 2 10 3 11 4 28 5 12 6 14 7 27 8 13 9 15 10 26 11
REMARK SMILES IDX 9 12 5 13 6 14 7 15 8 16 31 17 29 18 30 19 4 20 1 21 2 22
REMARK SMILES IDX 33 23 3 24 32 25 18 26 19 27 20 28 21 29 25 30 22 31 24 32
REMARK SMILES IDX 23 33
REMARK H PARENT
REMARK Flexibility Score: inf
ROOT
ATOM      1  O   UNL     1       3.476   1.986   1.315  1.00  0.00    -0.492 OA
ENDROOT
BRANCH   1   2
ATOM      2  C   UNL     1       2.256   1.623   0.752  1.00  0.00     0.121 A 
ATOM      3  C   UNL     1      -1.364   0.137  -0.507  1.00  0.00    -0.003 A 
ATOM      4  C   UNL     1      -1.354  -0.796  -1.537  1.00  0.00    -0.035 A 
ATOM      5  C   UNL     1      -0.121   0.400   0.057  1.00  0.00     0.008 A 
ATOM      6  C   UNL     1      -0.139  -1.239  -2.046  1.00  0.00     0.028 A 
ATOM      7  C   UNL     1       0.920   0.500  -0.859  1.00  0.00     0.074 A 
ATOM      8  C   UNL     1       0.028   0.855   1.343  1.00  0.00    -0.049 A 
ATOM      9  N   UNL     1       0.895  -0.375  -1.893  1.00  0.00    -0.256 NA
ATOM     10  C   UNL     1       2.163   0.984  -0.476  1.00  0.00     0.006 A 
ATOM     11  C   UNL     1       1.187   1.538   1.635  1.00  0.00    -0.019 A 
BRANCH   3  12
ATOM     12  C   UNL     1      -2.585   0.458   0.241  1.00  0.00     0.033 A 
ATOM     13  C   UNL     1      -3.781  -0.237   0.098  1.00  0.00     0.119 A 
ATOM     14  N   UNL     1      -4.812   0.620   0.300  1.00  0.00    -0.170 NA
ATOM     15  N   UNL     1      -4.325   1.856   0.405  1.00  0.00    -0.268 N 
ATOM     16  C   UNL     1      -2.993   1.731   0.620  1.00  0.00     0.047 A 
ATOM     17  C   UNL     1      -4.779   3.174   0.808  1.00  0.00     0.042 C 
ATOM     18  C   UNL     1      -2.476   3.012   1.178  1.00  0.00    -0.008 C 
ATOM     19  C   UNL     1      -3.731   3.561   1.846  1.00  0.00    -0.028 C 
BRANCH  13  20
ATOM     20  C   UNL     1      -3.973  -1.620  -0.356  1.00  0.00     0.091 A 
ATOM     21  C   UNL     1      -5.457  -3.960  -0.643  1.00  0.00    -0.044 A 
ATOM     22  C   UNL     1      -4.562  -3.845   0.393  1.00  0.00    -0.059 A 
ATOM     23  C   UNL     1      -5.349  -3.031  -1.668  1.00  0.00     0.028 A 
ATOM     24  C   UNL     1      -3.973  -2.612   0.617  1.00  0.00    -0.034 A 
ATOM     25  N   UNL     1      -4.843  -1.825  -1.376  1.00  0.00    -0.255 NA
ENDBRANCH  13  20
ENDBRANCH   3  12
ENDBRANCH   1   2
BRANCH   1  26
ATOM     26  C   UNL     1       4.723   1.528   0.863  1.00  0.00     0.101 C 
BRANCH  26  27
ATOM     27  C   UNL     1       4.830   0.029   0.807  1.00  0.00     0.033 C 
BRANCH  27  28
ATOM     28  N   UNL     1       5.496  -0.312  -0.436  1.00  0.00    -0.295 NA
ATOM     29  C   UNL     1       6.686   0.531  -0.528  1.00  0.00     0.022 C 
ATOM     30  C   UNL     1       5.936  -1.692  -0.382  1.00  0.00     0.022 C 
ATOM     31  C   UNL     1       7.875  -0.171   0.109  1.00  0.00     0.059 C 
ATOM     32  C   UNL     1       6.750  -1.990   0.851  1.00  0.00     0.059 C 
ATOM     33  O   UNL     1       7.396  -0.820   1.244  1.00  0.00    -0.379 OA
ENDBRANCH  27  28
ENDBRANCH  26  27
ENDBRANCH   1  26
TORSDOF 6

