REMARK SMILES Cc1cc2c(s1)Nc1ccccc1N=C2N1CCN(C)CC1
REMARK SMILES IDX 1 1 2 2 3 3 4 4 5 5 6 6 7 7 8 8 9 9 10 10 11 11 12 12 13 13
REMARK SMILES IDX 14 14 15 15 16 16 17 17 18 18 19 19 20 20 21 21 22 22
REMARK H PARENT
REMARK Flexibility Score: inf
ROOT
ATOM      1  C   UNL     1       1.319   4.635   0.207  1.00  0.00    -0.030 C 
ATOM      2  C   UNL     1       0.409   3.457   0.036  1.00  0.00     0.004 A 
ATOM      3  C   UNL     1       0.833   2.137   0.155  1.00  0.00    -0.035 A 
ATOM      4  C   UNL     1      -0.163   1.251  -0.158  1.00  0.00     0.052 A 
ATOM      5  C   UNL     1      -1.345   1.571   0.501  1.00  0.00     0.104 A 
ATOM      6  S   UNL     1      -1.220   3.283   0.553  1.00  0.00    -0.123 S 
ATOM      7  N   UNL     1      -2.518   0.789   0.754  1.00  0.00    -0.345 N 
ATOM      8  C   UNL     1      -2.670  -0.630   0.618  1.00  0.00     0.065 A 
ATOM      9  C   UNL     1      -3.937  -1.030   1.007  1.00  0.00    -0.036 A 
ATOM     10  C   UNL     1      -4.553  -2.083   0.342  1.00  0.00    -0.060 A 
ATOM     11  C   UNL     1      -3.743  -2.925  -0.407  1.00  0.00    -0.060 A 
ATOM     12  C   UNL     1      -2.432  -2.583  -0.699  1.00  0.00    -0.034 A 
ATOM     13  C   UNL     1      -1.886  -1.387  -0.247  1.00  0.00     0.089 A 
ATOM     14  N   UNL     1      -0.574  -1.153  -0.752  1.00  0.00    -0.229 NA
ATOM     15  C   UNL     1       0.188  -0.123  -0.541  1.00  0.00     0.139 C 
ATOM     16  N   UNL     1       1.567  -0.387  -0.741  1.00  0.00    -0.353 N 
ATOM     17  C   UNL     1       2.542   0.664  -0.471  1.00  0.00     0.032 C 
ATOM     18  C   UNL     1       3.941   0.156  -0.651  1.00  0.00     0.016 C 
ATOM     19  N   UNL     1       4.220  -1.064   0.054  1.00  0.00    -0.303 NA
ATOM     20  C   UNL     1       4.810  -0.854   1.349  1.00  0.00    -0.013 C 
ATOM     21  C   UNL     1       3.140  -2.011   0.051  1.00  0.00     0.016 C 
ATOM     22  C   UNL     1       2.072  -1.712  -0.960  1.00  0.00     0.032 C 
ENDROOT
TORSDOF 0

