
     RDKit          3D

 13 13  0  0  0  0  0  0  0  0999 V2000
   -2.4346    0.8301    1.8306 N   0  0  0  0  0  0  0  0  0  0  0  0
   -2.5857    0.1880    0.2232 S   0  0  0  0  0  0  0  0  0  0  0  0
   -3.6344   -0.8871    0.3049 O   0  0  0  0  0  0  0  0  0  0  0  0
   -3.0702    1.2495   -0.7380 O   0  0  0  0  0  0  0  0  0  0  0  0
   -1.0649   -0.4211   -0.3744 C   0  0  0  0  0  0  0  0  0  0  0  0
   -0.3732    0.1796   -1.4193 C   0  0  0  0  0  0  0  0  0  0  0  0
    1.0135    0.2317   -1.3745 C   0  0  0  0  0  0  0  0  0  0  0  0
    1.7489   -0.3788   -0.3688 C   0  0  0  0  0  0  0  0  0  0  0  0
    2.9601    0.2440    0.1770 C   0  0  0  0  0  0  0  0  0  0  0  0
    3.3467   -0.0237    1.3546 O   0  0  0  0  0  0  0  0  0  0  0  0
    3.3783    1.4826   -0.3195 O   0  0  0  0  0  0  0  0  0  0  0  0
    1.0513   -1.3132    0.3879 C   0  0  0  0  0  0  0  0  0  0  0  0
   -0.3359   -1.3816    0.3164 C   0  0  0  0  0  0  0  0  0  0  0  0
  1  2  1  0
  2  3  2  0
  2  4  2  0
  2  5  1  0
  5  6  2  0
  6  7  1  0
  7  8  2  0
  8  9  1  0
  9 10  2  0
  9 11  1  0
  8 12  1  0
 12 13  2  0
 13  5  1  0
M  END
>  <zinc_id>  (1) 
ZINC000000001099

>  <smiles>  (1) 
NS(=O)(=O)c1ccc(C(=O)O)cc1

$$$$
