
     RDKit          3D

 39 43  0  0  0  0  0  0  0  0999 V2000
   -4.1913    1.7099    0.1550 C   0  0  0  0  0  0  0  0  0  0  0  0
   -3.2292    0.6481    0.5344 C   0  0  0  0  0  0  0  0  0  0  0  0
   -2.0269    1.0366    1.0714 C   0  0  0  0  0  0  0  0  0  0  0  0
   -1.0578    0.0464    1.1729 C   0  0  0  0  0  0  0  0  0  0  0  0
   -1.0638   -1.0546    0.3255 C   0  0  0  0  0  0  0  0  0  0  0  0
    0.1921   -1.5578   -0.2462 C   0  0  0  0  0  0  0  0  0  0  0  0
    0.4643   -1.1202   -1.4051 O   0  0  0  0  0  0  0  0  0  0  0  0
    1.3109   -1.9046    0.5620 N   0  0  0  0  0  0  0  0  0  0  0  0
    2.6589   -1.6052    0.1815 C   0  0  0  0  0  0  0  0  0  0  0  0
    3.6446   -1.7942    1.1278 C   0  0  0  0  0  0  0  0  0  0  0  0
    4.7330   -0.9411    1.2579 C   0  0  0  0  0  0  0  0  0  0  0  0
    4.9237    0.0209    0.2746 C   0  0  0  0  0  0  0  0  0  0  0  0
    6.1059    0.9111    0.3937 C   0  0  0  0  0  0  0  0  0  0  0  0
    7.1943    0.0949    0.9102 N   0  0  0  0  0  0  0  0  0  0  0  0
    8.3386    0.9115    1.2212 C   0  0  0  0  0  0  0  0  0  0  0  0
    8.7570    1.6308   -0.0327 C   0  0  0  0  0  0  0  0  0  0  0  0
    8.8802    0.7451   -1.1619 N   0  0  0  0  0  0  0  0  0  0  0  0
    8.0755    1.1378   -2.2907 C   0  0  0  0  0  0  0  0  0  0  0  0
    8.7502   -0.6472   -0.8181 C   0  0  0  0  0  0  0  0  0  0  0  0
    7.4709   -0.9391   -0.0563 C   0  0  0  0  0  0  0  0  0  0  0  0
    4.0917    0.0811   -0.8210 C   0  0  0  0  0  0  0  0  0  0  0  0
    4.0934    1.3683   -1.5849 C   0  0  0  0  0  0  0  0  0  0  0  0
    5.3240    1.9703   -1.5169 F   0  0  0  0  0  0  0  0  0  0  0  0
    3.1417    2.1828   -1.0024 F   0  0  0  0  0  0  0  0  0  0  0  0
    3.6905    1.1565   -2.8933 F   0  0  0  0  0  0  0  0  0  0  0  0
    2.9550   -0.6974   -0.8280 C   0  0  0  0  0  0  0  0  0  0  0  0
   -2.3028   -1.4808   -0.1376 C   0  0  0  0  0  0  0  0  0  0  0  0
   -3.3745   -0.6082   -0.0427 C   0  0  0  0  0  0  0  0  0  0  0  0
   -4.6748   -1.0796   -0.4653 C   0  0  0  0  0  0  0  0  0  0  0  0
   -5.8662   -1.2672   -0.6247 C   0  0  0  0  0  0  0  0  0  0  0  0
   -7.2833   -0.9865   -0.7035 C   0  0  0  0  0  0  0  0  0  0  0  0
   -8.0416   -0.9701   -1.8673 C   0  0  0  0  0  0  0  0  0  0  0  0
   -9.1482   -0.2561   -1.6422 N   0  0  0  0  0  0  0  0  0  0  0  0
   -9.1679    0.1264   -0.3461 C   0  0  0  0  0  0  0  0  0  0  0  0
   -9.7713    1.2090    0.2816 C   0  0  0  0  0  0  0  0  0  0  0  0
   -9.2066    1.7249    1.4413 C   0  0  0  0  0  0  0  0  0  0  0  0
   -8.4245    0.8375    2.1704 C   0  0  0  0  0  0  0  0  0  0  0  0
   -7.8929   -0.2350    1.5367 N   0  0  0  0  0  0  0  0  0  0  0  0
   -8.0730   -0.4053    0.2285 N   0  0  0  0  0  0  0  0  0  0  0  0
  1  2  1  0
  2  3  2  0
  3  4  1  0
  4  5  2  0
  5  6  1  0
  6  7  2  0
  6  8  1  0
  8  9  1  0
  9 10  2  0
 10 11  1  0
 11 12  2  0
 12 13  1  0
 13 14  1  0
 14 15  1  0
 15 16  1  0
 16 17  1  0
 17 18  1  0
 17 19  1  0
 19 20  1  0
 12 21  1  0
 21 22  1  0
 22 23  1  0
 22 24  1  0
 22 25  1  0
 21 26  2  0
  5 27  1  0
 27 28  2  0
 28 29  1  0
 29 30  3  0
 30 31  1  0
 31 32  2  0
 32 33  1  0
 33 34  2  0
 34 35  1  0
 35 36  2  0
 36 37  1  0
 37 38  2  0
 38 39  1  0
 28  2  1  0
 39 31  1  0
 26  9  1  0
 39 34  1  0
 20 14  1  0
M  END
>  <zinc_id>  (1) 
ZINC000036701290

>  <smiles>  (1) 
Cc1ccc(C(=O)Nc2ccc(CN3CCN(C)CC3)c(C(F)(F)F)c2)cc1C#Cc1cnc2cccnn12

$$$$
