
     RDKit          3D

 35 37  0  0  0  0  0  0  0  0999 V2000
    2.7322    0.9596    0.9643 C   0  0  0  0  0  0  0  0  0  0  0  0
    2.6046    0.0640    0.2315 C   0  0  0  0  0  0  0  0  0  0  0  0
    3.5988   -0.0411   -0.6655 C   0  0  0  0  0  0  0  0  0  0  0  0
    5.0010    0.1473   -0.2716 C   0  0  0  0  0  0  0  0  0  0  0  0
    5.7445    1.2477   -0.6828 C   0  0  0  0  0  0  0  0  0  0  0  0
    7.1853    1.0058    0.2204 S   0  0  0  0  0  0  0  0  0  0  0  0
    6.8289   -0.5686    0.7991 C   0  0  0  0  0  0  0  0  0  0  0  0
    7.4591   -1.1984    2.0023 C   0  0  0  0  0  0  0  0  0  0  0  0
    5.7452   -0.8721    0.1067 N   0  0  0  0  0  0  0  0  0  0  0  0
    1.2990   -0.0367   -0.7386 C   0  0  1  0  0  0  0  0  0  0  0  0
    0.7630   -1.4087    0.0039 C   0  0  0  0  0  0  0  0  0  0  0  0
    1.1853   -2.5900   -1.1049 C   0  0  2  0  0  0  0  0  0  0  0  0
    1.2144   -1.6554   -2.4130 O   0  0  0  0  0  0  0  0  0  0  0  0
   -0.1274   -2.4277   -2.0428 C   0  0  1  0  0  0  0  0  0  0  0  0
   -0.2742   -3.3672   -3.1489 C   0  0  0  0  0  0  0  0  0  0  0  0
   -1.1342   -1.5496   -1.4733 C   0  0  0  0  0  0  0  0  0  0  0  0
   -2.1252   -2.4975   -0.9770 C   0  0  0  0  0  0  0  0  0  0  0  0
   -3.3859   -2.2987   -0.4580 C   0  0  0  0  0  0  0  0  0  0  0  0
   -3.4445   -1.3150    0.8191 C   0  0  2  0  0  0  0  0  0  0  0  0
   -3.8548   -2.5006    1.8443 C   0  0  0  0  0  0  0  0  0  0  0  0
   -5.0814   -0.9179    0.5729 C   0  0  2  0  0  0  0  0  0  0  0  0
   -4.9079   -0.5259   -0.8627 O   0  0  0  0  0  0  0  0  0  0  0  0
   -4.9366    0.6973    1.1187 C   0  0  1  0  0  0  0  0  0  0  0  0
   -4.3049    0.2243    2.5359 C   0  0  0  0  0  0  0  0  0  0  0  0
   -3.5332    1.0267    0.4272 C   0  0  0  0  0  0  0  0  0  0  0  0
   -3.8951    1.5212   -0.6495 O   0  0  0  0  0  0  0  0  0  0  0  0
   -2.6666    1.9093    1.1899 C   0  0  0  0  0  0  0  0  0  0  0  0
   -3.6038    3.0285    1.6536 C   0  0  0  0  0  0  0  0  0  0  0  0
   -1.9272    1.4395    2.3264 C   0  0  0  0  0  0  0  0  0  0  0  0
   -1.7313    2.7565    0.1442 C   0  0  2  0  0  0  0  0  0  0  0  0
   -1.6288    1.6390   -0.8856 O   0  0  0  0  0  0  0  0  0  0  0  0
   -0.2910    2.2905    0.8126 C   0  0  0  0  0  0  0  0  0  0  0  0
    0.6699    2.1637   -0.2493 C   0  0  0  0  0  0  0  0  0  0  0  0
    0.3971    2.8143   -1.2629 O   0  0  0  0  0  0  0  0  0  0  0  0
    0.4260    0.8359    0.1133 O   0  0  0  0  0  0  0  0  0  0  0  0
  1  2  1  0
  2  3  2  0
  3  4  1  0
  4  5  2  0
  5  6  1  0
  6  7  1  0
  7  8  1  0
  7  9  2  0
 10  2  1  1
 10 11  1  0
 12 11  1  1
 12 13  1  0
 13 14  1  0
 14 15  1  6
 14 16  1  0
 16 17  1  0
 17 18  1  0
 18 19  1  0
 19 20  1  1
 19 21  1  0
 21 22  1  6
 21 23  1  0
 23 24  1  1
 23 25  1  0
 25 26  2  0
 25 27  1  0
 27 28  1  0
 27 29  1  0
 27 30  1  0
 30 31  1  6
 30 32  1  0
 32 33  1  0
 33 34  2  0
 33 35  1  0
  9  4  1  0
 35 10  1  0
 14 12  1  0
M  END
>  <zinc_id>  (1) 
ZINC000143036496

>  <smiles>  (1) 
C/C(=C\c1csc(C)n1)[C@H]1C[C@@H]2O[C@]2(C)CCC[C@H](C)[C@H](O)[C@@H](C)C(=O)C(C)(C)[C@H](O)CC(=O)O1

$$$$
