
     RDKit          3D

  4  3  0  0  0  0  0  0  0  0999 V2000
   -0.6027    1.1816   -0.0374 N   0  0  0  0  0  0  0  0  0  0  0  0
   -0.0084    0.0556    0.1030 C   0  0  0  0  0  0  0  0  0  0  0  0
   -0.7907   -1.1343   -0.0307 N   0  0  0  0  0  0  0  0  0  0  0  0
    1.4018   -0.1029   -0.0350 N   0  0  0  0  0  0  0  0  0  0  0  0
  1  2  2  0
  2  3  1  0
  2  4  1  0
M  END
>  <zinc_id>  (1) 
ZINC000008101126

>  <smiles>  (1) 
N=C(N)N

$$$$
