REMARK SMILES CN(C)CC/C=C1/c2ccccc2COc2ccc(CC(=O)O)cc21
REMARK SMILES IDX 6 1 7 2 8 3 9 4 10 5 11 6 12 7 13 8 14 9 15 10 16 11 17 12
REMARK SMILES IDX 18 13 19 14 24 15 25 16 5 17 4 18 2 19 1 20 3 21 20 22 21 23
REMARK SMILES IDX 22 24 23 25
REMARK H PARENT
REMARK Flexibility Score: inf
ROOT
ATOM      1  C   UNL     1      -1.216   1.481   0.355  1.00  0.00    -0.075 C 
ATOM      2  C   UNL     1      -1.101   0.247   0.788  1.00  0.00    -0.011 C 
ATOM      3  C   UNL     1      -2.312  -0.580   0.696  1.00  0.00    -0.011 A 
ATOM      4  C   UNL     1      -3.343   0.033  -0.007  1.00  0.00    -0.054 A 
ATOM      5  C   UNL     1      -4.185  -0.713  -0.823  1.00  0.00    -0.062 A 
ATOM      6  C   UNL     1      -4.068  -2.097  -0.810  1.00  0.00    -0.062 A 
ATOM      7  C   UNL     1      -3.433  -2.664   0.288  1.00  0.00    -0.055 A 
ATOM      8  C   UNL     1      -2.377  -1.962   0.845  1.00  0.00    -0.003 A 
ATOM      9  C   UNL     1      -1.500  -2.764   1.723  1.00  0.00     0.114 C 
ATOM     10  O   UNL     1      -0.131  -2.643   1.411  1.00  0.00    -0.488 OA
ATOM     11  C   UNL     1       0.620  -1.465   1.477  1.00  0.00     0.127 A 
ATOM     12  C   UNL     1       1.937  -1.641   1.806  1.00  0.00    -0.019 A 
ATOM     13  C   UNL     1       2.888  -0.866   1.153  1.00  0.00    -0.055 A 
ATOM     14  C   UNL     1       2.536   0.130   0.251  1.00  0.00    -0.036 A 
ATOM     15  C   UNL     1       1.216   0.558   0.303  1.00  0.00    -0.047 A 
ATOM     16  C   UNL     1       0.279  -0.219   0.971  1.00  0.00     0.024 A 
ENDROOT
BRANCH   1  17
ATOM     17  C   UNL     1      -0.045   2.173  -0.265  1.00  0.00    -0.021 C 
BRANCH  17  18
ATOM     18  C   UNL     1      -0.492   2.563  -1.669  1.00  0.00     0.001 C 
BRANCH  18  19
ATOM     19  N   UNL     1      -1.164   3.839  -1.554  1.00  0.00    -0.309 NA
ATOM     20  C   UNL     1      -1.094   4.463  -2.866  1.00  0.00    -0.014 C 
ATOM     21  C   UNL     1      -0.401   4.651  -0.621  1.00  0.00    -0.014 C 
ENDBRANCH  18  19
ENDBRANCH  17  18
ENDBRANCH   1  17
BRANCH  14  22
ATOM     22  C   UNL     1       3.427   0.468  -0.900  1.00  0.00     0.070 C 
BRANCH  22  23
ATOM     23  C   UNL     1       4.527  -0.546  -0.969  1.00  0.00     0.307 C 
ATOM     24  O   UNL     1       5.224  -0.723   0.075  1.00  0.00    -0.252 OA
ATOM     25  O   UNL     1       4.210  -1.720  -1.659  1.00  0.00    -0.481 OA
ENDBRANCH  22  23
ENDBRANCH  14  22
TORSDOF 5

