
     RDKit          3D

 17 17  0  0  0  0  0  0  0  0999 V2000
    4.8703   -1.4055   -0.7342 C   0  0  0  0  0  0  0  0  0  0  0  0
    3.9095   -0.9949    0.3425 C   0  0  0  0  0  0  0  0  0  0  0  0
    3.2293    0.2427    0.0816 N   0  0  0  0  0  0  0  0  0  0  0  0
    3.9759    1.4114    0.4658 C   0  0  0  0  0  0  0  0  0  0  0  0
    3.8665    2.4470   -0.6206 C   0  0  0  0  0  0  0  0  0  0  0  0
    2.6435    0.3366   -1.2252 C   0  0  0  0  0  0  0  0  0  0  0  0
    1.4690   -0.5989   -1.3196 C   0  0  0  0  0  0  0  0  0  0  0  0
    0.2650   -0.0248   -0.8718 O   0  0  0  0  0  0  0  0  0  0  0  0
   -0.3347   -0.6313    0.2367 C   0  0  0  0  0  0  0  0  0  0  0  0
    0.4101   -0.7203    1.2592 O   0  0  0  0  0  0  0  0  0  0  0  0
   -1.7841   -0.5367    0.4489 C   0  0  0  0  0  0  0  0  0  0  0  0
   -2.6773   -1.1382   -0.4285 C   0  0  0  0  0  0  0  0  0  0  0  0
   -4.0092   -0.7475   -0.4868 C   0  0  0  0  0  0  0  0  0  0  0  0
   -4.4665    0.2292    0.3895 C   0  0  0  0  0  0  0  0  0  0  0  0
   -5.5560    1.0272   -0.0410 N   0  0  0  0  0  0  0  0  0  0  0  0
   -3.5940    0.6217    1.3965 C   0  0  0  0  0  0  0  0  0  0  0  0
   -2.2174    0.4823    1.2719 C   0  0  0  0  0  0  0  0  0  0  0  0
  1  2  1  0
  2  3  1  0
  3  4  1  0
  4  5  1  0
  3  6  1  0
  6  7  1  0
  7  8  1  0
  8  9  1  0
  9 10  2  0
  9 11  1  0
 11 12  2  0
 12 13  1  0
 13 14  2  0
 14 15  1  0
 14 16  1  0
 16 17  2  0
 17 11  1  0
M  END
>  <zinc_id>  (1) 
ZINC000001530757

>  <smiles>  (1) 
CCN(CC)CCOC(=O)c1ccc(N)cc1

$$$$
