REMARK SMILES CCCCNc1ncc2c(-c3ccc(CN4CCN(C)CC4)cc3)cn([C@H]3CC[C@H](O)CC3)c2n1
REMARK SMILES IDX 6 1 7 2 8 3 9 4 10 5 25 6 26 7 34 8 35 9 5 10 4 11 3 12 2 13
REMARK SMILES IDX 1 14 27 15 33 16 28 17 32 18 29 19 30 20 31 21 11 22 12 23
REMARK SMILES IDX 24 24 13 25 23 26 14 27 15 28 16 29 17 30 22 31 18 32 21 33
REMARK SMILES IDX 19 34 20 35
REMARK H PARENT
REMARK Flexibility Score: inf
ROOT
ATOM      1  C   UNL     1      -4.084   0.683   0.668  1.00  0.00     0.224 A 
ATOM      2  N   UNL     1      -3.115   1.613   0.844  1.00  0.00    -0.221 NA
ATOM      3  C   UNL     1      -1.891   1.431   0.291  1.00  0.00     0.042 A 
ATOM      4  C   UNL     1      -1.640   0.332  -0.522  1.00  0.00     0.045 A 
ATOM      5  C   UNL     1      -0.416  -0.251  -0.842  1.00  0.00     0.010 A 
ATOM      6  C   UNL     1      -0.783  -1.522  -1.271  1.00  0.00     0.014 A 
ATOM      7  N   UNL     1      -2.024  -1.834  -0.816  1.00  0.00    -0.329 N 
ATOM      8  C   UNL     1      -2.526  -0.731  -0.351  1.00  0.00     0.146 A 
ATOM      9  N   UNL     1      -3.703  -0.564   0.300  1.00  0.00    -0.195 NA
ENDROOT
BRANCH   1  10
ATOM     10  N   UNL     1      -5.457   1.091   0.652  1.00  0.00    -0.354 N 
BRANCH  10  11
ATOM     11  C   UNL     1      -5.864   2.089  -0.332  1.00  0.00     0.018 C 
BRANCH  11  12
ATOM     12  C   UNL     1      -5.761   3.431   0.350  1.00  0.00    -0.036 C 
BRANCH  12  13
ATOM     13  C   UNL     1      -4.858   4.393  -0.370  1.00  0.00    -0.054 C 
ATOM     14  C   UNL     1      -5.115   5.583  -0.232  1.00  0.00    -0.065 C 
ENDBRANCH  12  13
ENDBRANCH  11  12
ENDBRANCH  10  11
ENDBRANCH   1  10
BRANCH   7  15
ATOM     15  C   UNL     1      -2.155  -3.294  -0.260  1.00  0.00     0.035 C 
ATOM     16  C   UNL     1      -3.102  -2.934   1.033  1.00  0.00    -0.030 C 
ATOM     17  C   UNL     1      -3.435  -3.631  -1.222  1.00  0.00    -0.030 C 
ATOM     18  C   UNL     1      -3.329  -4.268   1.587  1.00  0.00    -0.025 C 
ATOM     19  C   UNL     1      -4.608  -3.950  -0.466  1.00  0.00    -0.025 C 
ATOM     20  C   UNL     1      -4.363  -5.133   0.646  1.00  0.00     0.054 C 
ATOM     21  O   UNL     1      -3.221  -5.770  -0.128  1.00  0.00    -0.393 OA
ENDBRANCH   7  15
BRANCH   5  22
ATOM     22  C   UNL     1       0.925   0.221  -0.460  1.00  0.00    -0.016 A 
ATOM     23  C   UNL     1       1.551  -0.500   0.553  1.00  0.00    -0.054 A 
ATOM     24  C   UNL     1       1.735   0.972  -1.262  1.00  0.00    -0.054 A 
ATOM     25  C   UNL     1       2.685   0.050   1.107  1.00  0.00    -0.057 A 
ATOM     26  C   UNL     1       3.079   1.125  -0.936  1.00  0.00    -0.057 A 
ATOM     27  C   UNL     1       3.583   0.639   0.244  1.00  0.00    -0.034 A 
BRANCH  27  28
ATOM     28  C   UNL     1       5.048   0.432   0.489  1.00  0.00     0.023 C 
BRANCH  28  29
ATOM     29  N   UNL     1       5.859   1.166  -0.455  1.00  0.00    -0.297 NA
ATOM     30  C   UNL     1       6.941   0.335  -0.964  1.00  0.00     0.011 C 
ATOM     31  C   UNL     1       6.297   2.423   0.062  1.00  0.00     0.011 C 
ATOM     32  C   UNL     1       8.045   1.277  -1.428  1.00  0.00     0.011 C 
ATOM     33  C   UNL     1       7.673   2.461   0.607  1.00  0.00     0.011 C 
ATOM     34  N   UNL     1       8.647   1.825  -0.237  1.00  0.00    -0.304 NA
ATOM     35  C   UNL     1       9.381   0.809   0.472  1.00  0.00    -0.013 C 
ENDBRANCH  28  29
ENDBRANCH  27  28
ENDBRANCH   5  22
TORSDOF 8

