REMARK SMILES COCC(=O)NC/C=C/c1ccc2ncnc(Nc3ccc(Oc4ccc(C)nc4)c(C)c3)c2c1
REMARK SMILES IDX 10 1 11 2 12 3 13 4 14 5 15 6 16 7 17 8 34 9 35 10 9 11 8 12
REMARK SMILES IDX 7 13 6 14 4 15 5 16 3 17 2 18 1 19 18 20 19 21 20 22 33 23
REMARK SMILES IDX 21 24 31 25 22 26 32 27 23 28 24 29 25 30 30 31 26 32 29 33
REMARK SMILES IDX 27 34 28 35
REMARK H PARENT
REMARK Flexibility Score: inf
ROOT
ATOM      1  C   UNL     1       3.659   0.571  -1.566  1.00  0.00    -0.025 A 
ATOM      2  C   UNL     1       4.174   1.281  -0.489  1.00  0.00    -0.053 A 
ATOM      3  C   UNL     1       3.446   1.435   0.683  1.00  0.00    -0.035 A 
ATOM      4  C   UNL     1       2.094   1.130   0.641  1.00  0.00     0.076 A 
ATOM      5  N   UNL     1       1.327   1.321   1.732  1.00  0.00    -0.236 NA
ATOM      6  C   UNL     1       0.011   1.571   1.531  1.00  0.00     0.118 A 
ATOM      7  N   UNL     1      -0.596   1.157   0.400  1.00  0.00    -0.219 NA
ATOM      8  C   UNL     1       0.099   0.720  -0.676  1.00  0.00     0.141 A 
ATOM      9  C   UNL     1       1.479   0.758  -0.550  1.00  0.00     0.044 A 
ATOM     10  C   UNL     1       2.283   0.379  -1.612  1.00  0.00    -0.042 A 
ENDROOT
BRANCH   1  11
ATOM     11  C   UNL     1       4.557  -0.016  -2.563  1.00  0.00    -0.057 C 
ATOM     12  C   UNL     1       5.617   0.615  -3.037  1.00  0.00    -0.065 C 
BRANCH  12  13
ATOM     13  C   UNL     1       6.856  -0.103  -3.462  1.00  0.00     0.036 C 
BRANCH  13  14
ATOM     14  N   UNL     1       7.881   0.184  -2.468  1.00  0.00    -0.351 N 
ATOM     15  C   UNL     1       7.981  -0.650  -1.318  1.00  0.00     0.246 C 
ATOM     16  O   UNL     1       7.349  -1.747  -1.341  1.00  0.00    -0.272 OA
BRANCH  15  17
ATOM     17  C   UNL     1       8.493  -0.151  -0.006  1.00  0.00     0.125 C 
BRANCH  17  18
ATOM     18  O   UNL     1       7.539   0.567   0.696  1.00  0.00    -0.375 OA
ATOM     19  C   UNL     1       6.722  -0.233   1.477  1.00  0.00     0.036 C 
ENDBRANCH  17  18
ENDBRANCH  15  17
ENDBRANCH  13  14
ENDBRANCH  12  13
ENDBRANCH   1  11
BRANCH   8  20
ATOM     20  N   UNL     1      -0.485  -0.250  -1.552  1.00  0.00    -0.340 N 
BRANCH  20  21
ATOM     21  C   UNL     1      -1.621  -1.025  -1.150  1.00  0.00     0.040 A 
ATOM     22  C   UNL     1      -1.583  -1.500   0.155  1.00  0.00    -0.035 A 
ATOM     23  C   UNL     1      -2.867  -0.589  -1.583  1.00  0.00    -0.032 A 
ATOM     24  C   UNL     1      -2.734  -1.880   0.817  1.00  0.00    -0.017 A 
ATOM     25  C   UNL     1      -4.008  -0.781  -0.823  1.00  0.00    -0.006 A 
ATOM     26  C   UNL     1      -3.897  -1.190   0.497  1.00  0.00     0.130 A 
ATOM     27  C   UNL     1      -5.319  -0.650  -1.509  1.00  0.00    -0.036 C 
BRANCH  26  28
ATOM     28  O   UNL     1      -5.020  -1.503   1.227  1.00  0.00    -0.455 OA
BRANCH  28  29
ATOM     29  C   UNL     1      -6.130  -0.682   1.361  1.00  0.00     0.145 A 
ATOM     30  C   UNL     1      -6.145   0.408   2.223  1.00  0.00    -0.016 A 
ATOM     31  C   UNL     1      -7.376  -1.194   1.029  1.00  0.00     0.070 A 
ATOM     32  C   UNL     1      -7.344   0.760   2.828  1.00  0.00    -0.037 A 
ATOM     33  N   UNL     1      -8.477  -0.969   1.784  1.00  0.00    -0.258 NA
ATOM     34  C   UNL     1      -8.416  -0.124   2.841  1.00  0.00     0.038 A 
ATOM     35  C   UNL     1      -9.551  -0.002   3.784  1.00  0.00    -0.022 C 
ENDBRANCH  28  29
ENDBRANCH  26  28
ENDBRANCH  20  21
ENDBRANCH   8  20
TORSDOF 9

