
     RDKit          3D

 16 17  0  0  0  0  0  0  0  0999 V2000
   -4.0711   -0.1470    1.1651 N   0  0  0  0  0  0  0  0  0  0  0  0
   -3.2589   -0.7681    0.6241 C   0  0  0  0  0  0  0  0  0  0  0  0
   -2.4438   -1.6685    1.3116 C   0  0  0  0  0  0  0  0  0  0  0  0
   -1.0862   -1.7732    1.0034 C   0  0  0  0  0  0  0  0  0  0  0  0
   -0.5436   -1.1349   -0.0679 N   0  0  0  0  0  0  0  0  0  0  0  0
    0.4062    0.0611    0.4104 C   0  0  1  0  0  0  0  0  0  0  0  0
    1.6727   -0.9417    0.7564 C   0  0  0  0  0  0  0  0  0  0  0  0
    2.8246    0.2120    0.5653 C   0  0  2  0  0  0  0  0  0  0  0  0
    2.5329    0.7834    1.9354 O   0  0  0  0  0  0  0  0  0  0  0  0
    1.7482    1.3410   -0.1753 C   0  0  1  0  0  0  0  0  0  0  0  0
    2.7467    1.7362   -1.4124 C   0  0  0  0  0  0  0  0  0  0  0  0
    3.6574    0.7543   -1.5924 O   0  0  0  0  0  0  0  0  0  0  0  0
    1.0475    0.2563   -0.9699 O   0  0  0  0  0  0  0  0  0  0  0  0
   -1.4700   -0.6540   -0.9358 C   0  0  0  0  0  0  0  0  0  0  0  0
   -0.9708   -0.1402   -1.9786 O   0  0  0  0  0  0  0  0  0  0  0  0
   -2.7917   -0.5742   -0.6393 N   0  0  0  0  0  0  0  0  0  0  0  0
  1  2  1  0
  2  3  1  0
  3  4  2  0
  4  5  1  0
  6  5  1  6
  6  7  1  0
  7  8  1  0
  8  9  1  1
  8 10  1  0
 10 11  1  6
 11 12  1  0
 10 13  1  0
  5 14  1  0
 14 15  2  0
 14 16  1  0
 16  2  2  0
 13  6  1  0
M  END
>  <zinc_id>  (1) 
ZINC000018286013

>  <smiles>  (1) 
Nc1ccn([C@H]2C[C@H](O)[C@@H](CO)O2)c(=O)n1

$$$$
