
     RDKit          3D

 13 13  0  0  0  0  0  0  0  0999 V2000
   -3.1859    1.0197    1.1050 C   0  0  0  0  0  0  0  0  0  0  0  0
   -2.7377   -0.3394    0.5773 C   0  0  0  0  0  0  0  0  0  0  0  0
   -3.9136   -0.8534   -0.2476 C   0  0  0  0  0  0  0  0  0  0  0  0
   -1.6548   -0.0689   -0.4218 C   0  0  0  0  0  0  0  0  0  0  0  0
   -2.0067    0.7144   -1.3556 O   0  0  0  0  0  0  0  0  0  0  0  0
   -0.2400   -0.2641   -0.1036 C   0  0  0  0  0  0  0  0  0  0  0  0
    0.2164   -0.6569    1.1231 C   0  0  0  0  0  0  0  0  0  0  0  0
    1.5701   -0.5771    1.4268 C   0  0  0  0  0  0  0  0  0  0  0  0
    2.4873   -0.0290    0.5380 C   0  0  0  0  0  0  0  0  0  0  0  0
    3.8540   -0.2809    0.6865 O   0  0  0  0  0  0  0  0  0  0  0  0
    1.9866    0.4704   -0.6569 C   0  0  0  0  0  0  0  0  0  0  0  0
    2.9332    0.7316   -1.6443 O   0  0  0  0  0  0  0  0  0  0  0  0
    0.6911    0.1336   -1.0271 C   0  0  0  0  0  0  0  0  0  0  0  0
  1  2  1  0
  2  3  1  0
  2  4  1  0
  4  5  2  0
  4  6  1  0
  6  7  2  0
  7  8  1  0
  8  9  2  0
  9 10  1  0
  9 11  1  0
 11 12  1  0
 11 13  2  0
 13  6  1  0
M  END
>  <zinc_id>  (1) 
ZINC000001641376

>  <smiles>  (1) 
CC(C)C(=O)c1ccc(O)c(O)c1

$$$$
