
     RDKit          3D

  9  9  0  0  0  0  0  0  0  0999 V2000
   -0.3723    2.1342    0.4975 C   0  0  0  0  0  0  0  0  0  0  0  0
   -0.7021    0.6915    0.3514 C   0  0  0  0  0  0  0  0  0  0  0  0
   -1.9354    0.1688    0.5529 N   0  0  0  0  0  0  0  0  0  0  0  0
   -1.7738   -1.1525    0.2942 C   0  0  0  0  0  0  0  0  0  0  0  0
   -0.9516   -1.1684   -0.7793 N   0  0  0  0  0  0  0  0  0  0  0  0
   -0.1482   -0.0833   -0.6582 C   0  0  0  0  0  0  0  0  0  0  0  0
    1.2627   -0.0643   -1.1411 C   0  0  0  0  0  0  0  0  0  0  0  0
    2.2438    0.2647   -0.0456 C   0  0  0  0  0  0  0  0  0  0  0  0
    2.3770   -0.7907    0.9283 N   0  0  0  0  0  0  0  0  0  0  0  0
  1  2  1  0
  2  3  1  0
  3  4  1  0
  4  5  2  0
  5  6  1  0
  6  7  1  0
  7  8  1  0
  8  9  1  0
  6  2  2  0
M  END
>  <zinc_id>  (1) 
ZINC000003605034

>  <smiles>  (1) 
Cc1[nH]cnc1CCN

$$$$
