
     RDKit          3D

 28 30  0  0  0  0  0  0  0  0999 V2000
   -5.7418    2.8054    0.3820 O   0  0  0  0  0  0  0  0  0  0  0  0
   -4.9963    2.0140    0.9775 C   0  0  0  0  0  0  0  0  0  0  0  0
   -4.9056    0.7999   -0.1556 C   0  0  1  0  0  0  0  0  0  0  0  0
   -3.3993    0.5909    0.1030 O   0  0  0  0  0  0  0  0  0  0  0  0
   -3.4150   -0.4206   -1.0921 C   0  0  1  0  0  0  0  0  0  0  0  0
   -1.8537   -0.5425   -1.1865 O   0  0  0  0  0  0  0  0  0  0  0  0
   -1.0744   -0.4444   -0.0817 C   0  0  0  0  0  0  0  0  0  0  0  0
   -0.6557   -1.6239    0.5315 C   0  0  0  0  0  0  0  0  0  0  0  0
    0.6647   -1.9643    0.7289 C   0  0  0  0  0  0  0  0  0  0  0  0
    1.1087   -3.1547    1.2524 O   0  0  0  0  0  0  0  0  0  0  0  0
    1.6437   -1.1286    0.2141 C   0  0  0  0  0  0  0  0  0  0  0  0
    1.2851    0.2073    0.0586 C   0  0  0  0  0  0  0  0  0  0  0  0
    2.3834    1.1213   -0.2889 C   0  0  0  0  0  0  0  0  0  0  0  0
    3.4155    1.3655    0.4732 C   0  0  0  0  0  0  0  0  0  0  0  0
    4.8033    1.4070    0.0642 C   0  0  0  0  0  0  0  0  0  0  0  0
    5.7072    1.3900    1.1243 C   0  0  0  0  0  0  0  0  0  0  0  0
    7.0671    1.4015    0.8367 C   0  0  0  0  0  0  0  0  0  0  0  0
    7.4815    1.4518   -0.4866 C   0  0  0  0  0  0  0  0  0  0  0  0
    8.6340    2.1164   -0.8943 O   0  0  0  0  0  0  0  0  0  0  0  0
    6.6070    0.8944   -1.4109 C   0  0  0  0  0  0  0  0  0  0  0  0
    5.2755    0.7216   -1.0533 C   0  0  0  0  0  0  0  0  0  0  0  0
   -0.0470    0.5019   -0.1357 C   0  0  0  0  0  0  0  0  0  0  0  0
   -3.5496   -1.7745    0.0328 C   0  0  2  0  0  0  0  0  0  0  0  0
   -3.4786   -2.7776   -1.0862 O   0  0  0  0  0  0  0  0  0  0  0  0
   -5.2630   -1.6524   -0.1581 C   0  0  1  0  0  0  0  0  0  0  0  0
   -5.5121   -2.7117    0.8985 O   0  0  0  0  0  0  0  0  0  0  0  0
   -5.3606   -0.3967    1.0304 C   0  0  2  0  0  0  0  0  0  0  0  0
   -6.8241   -0.1971    0.7128 O   0  0  0  0  0  0  0  0  0  0  0  0
  1  2  1  0
  3  2  1  1
  3  4  1  0
  4  5  1  0
  5  6  1  1
  6  7  1  0
  7  8  2  0
  8  9  1  0
  9 10  1  0
  9 11  2  0
 11 12  1  0
 12 13  1  0
 13 14  2  0
 14 15  1  0
 15 16  2  0
 16 17  1  0
 17 18  2  0
 18 19  1  0
 18 20  1  0
 20 21  2  0
 12 22  2  0
  5 23  1  0
 23 24  1  6
 23 25  1  0
 25 26  1  1
 25 27  1  0
 27 28  1  6
 27  3  1  0
 22  7  1  0
 21 15  1  0
M  END
>  <zinc_id>  (1) 
ZINC000004098633

>  <smiles>  (1) 
OC[C@H]1O[C@@H](Oc2cc(O)cc(/C=C/c3ccc(O)cc3)c2)[C@H](O)[C@@H](O)[C@@H]1O

$$$$
