
     RDKit          3D

 20 23  0  0  0  0  0  0  0  0999 V2000
   -3.6372   -2.0520   -0.2549 C   0  0  0  0  0  0  0  0  0  0  0  0
   -2.9705   -0.8610    0.3173 C   0  0  0  0  0  0  0  0  0  0  0  0
   -3.6125    0.0593    1.1059 C   0  0  0  0  0  0  0  0  0  0  0  0
   -2.9023    1.1277    1.6281 C   0  0  0  0  0  0  0  0  0  0  0  0
   -1.8678    1.5561    0.8686 N   0  0  0  0  0  0  0  0  0  0  0  0
   -1.1290    0.6302    0.2102 C   0  0  0  0  0  0  0  0  0  0  0  0
   -1.6492   -0.6372   -0.0194 C   0  0  0  0  0  0  0  0  0  0  0  0
   -0.9766   -1.8037   -0.5058 N   0  0  0  0  0  0  0  0  0  0  0  0
    0.4308   -2.0110   -0.6542 C   0  0  0  0  0  0  0  0  0  0  0  0
    0.8286   -3.0733   -1.1874 O   0  0  0  0  0  0  0  0  0  0  0  0
    1.5394   -1.0870   -0.3829 C   0  0  0  0  0  0  0  0  0  0  0  0
    2.6634   -1.7762    0.0557 C   0  0  0  0  0  0  0  0  0  0  0  0
    3.6935   -1.0383    0.6227 C   0  0  0  0  0  0  0  0  0  0  0  0
    3.6044    0.3443    0.7047 C   0  0  0  0  0  0  0  0  0  0  0  0
    2.4948    0.9859    0.2616 N   0  0  0  0  0  0  0  0  0  0  0  0
    1.4237    0.2820   -0.1738 C   0  0  0  0  0  0  0  0  0  0  0  0
    0.2353    1.0377    0.0908 N   0  0  0  0  0  0  0  0  0  0  0  0
    0.3777    2.4625   -0.0901 C   0  0  0  0  0  0  0  0  0  0  0  0
   -0.0158    2.9244   -1.5183 C   0  0  0  0  0  0  0  0  0  0  0  0
    1.4693    2.9297   -1.0789 C   0  0  0  0  0  0  0  0  0  0  0  0
  1  2  1  0
  2  3  2  0
  3  4  1  0
  4  5  2  0
  5  6  1  0
  6  7  2  0
  7  8  1  0
  8  9  1  0
  9 10  2  0
  9 11  1  0
 11 12  2  0
 12 13  1  0
 13 14  2  0
 14 15  1  0
 15 16  2  0
 16 17  1  0
 17 18  1  0
 18 19  1  0
 19 20  1  0
  7  2  1  0
 16 11  1  0
 20 18  1  0
 17  6  1  0
M  END
>  <zinc_id>  (1) 
ZINC000000004778

>  <smiles>  (1) 
Cc1ccnc2c1NC(=O)c1cccnc1N2C1CC1

$$$$
