REMARK SMILES CCCCC[C@H](O)/C=C/[C@H]1[C@H](O)C[C@@H]2O/C(=C\CCCC(=O)O)C[C@@H]21
REMARK SMILES IDX 8 1 9 2 6 3 7 4 5 5 4 6 3 7 2 8 1 9 10 10 11 11 25 12 12 13
REMARK SMILES IDX 13 14 14 15 24 16 15 17 16 18 17 19 18 20 19 21 20 22 21 23
REMARK SMILES IDX 22 24 23 25
REMARK H PARENT
REMARK Flexibility Score: inf
ROOT
ATOM      1  C   UNL     1      -3.311  -1.333   0.376  1.00  0.00    -0.060 C 
ATOM      2  C   UNL     1      -2.067  -1.327   0.672  1.00  0.00    -0.080 C 
ENDROOT
BRANCH   1   3
ATOM      3  C   UNL     1      -3.696  -1.261  -1.203  1.00  0.00     0.072 C 
ATOM      4  O   UNL     1      -4.003  -2.749  -1.252  1.00  0.00    -0.389 OA
BRANCH   3   5
ATOM      5  C   UNL     1      -5.253  -0.864  -0.821  1.00  0.00    -0.023 C 
BRANCH   5   6
ATOM      6  C   UNL     1      -5.000   0.520  -0.222  1.00  0.00    -0.051 C 
BRANCH   6   7
ATOM      7  C   UNL     1      -4.836   1.417  -1.438  1.00  0.00    -0.053 C 
BRANCH   7   8
ATOM      8  C   UNL     1      -4.046   2.661  -1.141  1.00  0.00    -0.056 C 
ATOM      9  C   UNL     1      -4.722   3.541  -0.231  1.00  0.00    -0.065 C 
ENDBRANCH   7   8
ENDBRANCH   6   7
ENDBRANCH   5   6
ENDBRANCH   3   5
ENDBRANCH   1   3
BRANCH   2  10
ATOM     10  C   UNL     1      -1.332   0.013   1.131  1.00  0.00     0.010 C 
ATOM     11  C   UNL     1      -0.823  -0.726   2.562  1.00  0.00     0.064 C 
ATOM     12  C   UNL     1      -0.060  -0.296   0.105  1.00  0.00     0.012 C 
ATOM     13  O   UNL     1      -0.254   0.585   3.083  1.00  0.00    -0.392 OA
ATOM     14  C   UNL     1       0.639  -1.232   2.100  1.00  0.00     0.011 C 
ATOM     15  C   UNL     1       0.196  -1.864   0.676  1.00  0.00     0.105 C 
ATOM     16  C   UNL     1       1.141   0.377   0.936  1.00  0.00     0.012 C 
ATOM     17  O   UNL     1       1.627  -1.811   0.137  1.00  0.00    -0.495 OA
ATOM     18  C   UNL     1       2.166  -0.614   0.488  1.00  0.00     0.093 C 
ATOM     19  C   UNL     1       3.490  -0.474   0.402  1.00  0.00    -0.047 C 
BRANCH  19  20
ATOM     20  C   UNL     1       4.194  -1.012  -0.810  1.00  0.00    -0.031 C 
BRANCH  20  21
ATOM     21  C   UNL     1       5.610  -0.581  -0.665  1.00  0.00    -0.039 C 
BRANCH  21  22
ATOM     22  C   UNL     1       5.646   0.873  -0.206  1.00  0.00     0.046 C 
BRANCH  22  23
ATOM     23  C   UNL     1       5.078   1.749  -1.267  1.00  0.00     0.303 C 
ATOM     24  O   UNL     1       5.879   2.349  -2.038  1.00  0.00    -0.252 OA
ATOM     25  O   UNL     1       3.737   2.059  -1.376  1.00  0.00    -0.481 OA
ENDBRANCH  22  23
ENDBRANCH  21  22
ENDBRANCH  20  21
ENDBRANCH  19  20
ENDBRANCH   2  10
TORSDOF 10

