
     RDKit          3D

 22 23  0  0  0  0  0  0  0  0999 V2000
    2.6662   -2.3933   -1.5463 N   0  0  0  0  0  0  0  0  0  0  0  0
    1.6125   -2.0052   -0.6549 C   0  0  0  0  0  0  0  0  0  0  0  0
    0.5038   -1.5102   -1.1244 N   0  0  0  0  0  0  0  0  0  0  0  0
   -0.5781   -1.4420   -0.1812 C   0  0  0  0  0  0  0  0  0  0  0  0
   -0.9531   -2.5885    0.2209 O   0  0  0  0  0  0  0  0  0  0  0  0
   -1.6718   -0.5494   -0.5910 C   0  0  0  0  0  0  0  0  0  0  0  0
   -1.4535    0.7422   -0.9409 N   0  0  0  0  0  0  0  0  0  0  0  0
   -2.3497    1.6827   -0.5773 C   0  0  0  0  0  0  0  0  0  0  0  0
   -1.8864    3.3634   -0.3264 Cl  0  0  0  0  0  0  0  0  0  0  0  0
   -3.6546    1.3236   -0.2693 C   0  0  0  0  0  0  0  0  0  0  0  0
   -4.3976    2.1572    0.6276 N   0  0  0  0  0  0  0  0  0  0  0  0
   -3.9725    0.0276   -0.4797 N   0  0  0  0  0  0  0  0  0  0  0  0
   -3.0029   -0.9133   -0.5229 C   0  0  0  0  0  0  0  0  0  0  0  0
   -3.2965   -2.3125   -0.5787 N   0  0  0  0  0  0  0  0  0  0  0  0
    1.8516   -1.8213    0.7466 N   0  0  0  0  0  0  0  0  0  0  0  0
    1.1606   -0.6940    1.3714 C   0  0  0  0  0  0  0  0  0  0  0  0
    2.1252    0.4482    1.2776 C   0  0  0  0  0  0  0  0  0  0  0  0
    3.3667    0.3289    1.8919 C   0  0  0  0  0  0  0  0  0  0  0  0
    4.4197    1.1452    1.4939 C   0  0  0  0  0  0  0  0  0  0  0  0
    4.3606    1.7083    0.2239 C   0  0  0  0  0  0  0  0  0  0  0  0
    3.1213    1.8784   -0.3741 C   0  0  0  0  0  0  0  0  0  0  0  0
    2.0285    1.4239    0.3133 C   0  0  0  0  0  0  0  0  0  0  0  0
  1  2  1  0
  2  3  2  0
  3  4  1  0
  4  5  2  0
  4  6  1  0
  6  7  2  0
  7  8  1  0
  8  9  1  0
  8 10  2  0
 10 11  1  0
 10 12  1  0
 12 13  2  0
 13 14  1  0
  2 15  1  0
 15 16  1  0
 16 17  1  0
 17 18  2  0
 18 19  1  0
 19 20  2  0
 20 21  1  0
 21 22  2  0
 13  6  1  0
 22 17  1  0
M  END
>  <zinc_id>  (1) 
ZINC000013548421

>  <smiles>  (1) 
N/C(=N/C(=O)c1nc(Cl)c(N)nc1N)NCc1ccccc1

$$$$
