
     RDKit          3D

 15 15  0  0  0  0  0  0  0  0999 V2000
    3.3127   -0.9151   -1.4689 N   0  0  0  0  0  0  0  0  0  0  0  0
    2.9398    0.1124   -0.5405 C   0  0  0  0  0  0  0  0  0  0  0  0
    3.7642    1.2705   -0.5289 N   0  0  0  0  0  0  0  0  0  0  0  0
    2.1925   -0.1643    0.4761 N   0  0  0  0  0  0  0  0  0  0  0  0
    1.1192   -1.1065    0.3507 C   0  0  0  0  0  0  0  0  0  0  0  0
    1.4660   -2.2195   -0.1500 O   0  0  0  0  0  0  0  0  0  0  0  0
   -0.2723   -0.6497    0.3608 C   0  0  0  0  0  0  0  0  0  0  0  0
   -1.0612   -0.6880   -0.7309 N   0  0  0  0  0  0  0  0  0  0  0  0
   -2.0616    0.2096   -0.9056 C   0  0  0  0  0  0  0  0  0  0  0  0
   -3.3124   -0.0545   -2.1178 Cl  0  0  0  0  0  0  0  0  0  0  0  0
   -2.2755    1.1801    0.0655 C   0  0  0  0  0  0  0  0  0  0  0  0
   -3.0340    2.3198   -0.2858 N   0  0  0  0  0  0  0  0  0  0  0  0
   -1.7200    0.9892    1.2744 N   0  0  0  0  0  0  0  0  0  0  0  0
   -0.7681    0.0427    1.4560 C   0  0  0  0  0  0  0  0  0  0  0  0
   -0.2893   -0.3268    2.7448 N   0  0  0  0  0  0  0  0  0  0  0  0
  1  2  1  0
  2  3  1  0
  2  4  2  3
  4  5  1  0
  5  6  2  0
  5  7  1  0
  7  8  2  0
  8  9  1  0
  9 10  1  0
  9 11  2  0
 11 12  1  0
 11 13  1  0
 13 14  2  0
 14 15  1  0
 14  7  1  0
M  END
>  <zinc_id>  (1) 
ZINC000004340269

>  <smiles>  (1) 
NC(N)=NC(=O)c1nc(Cl)c(N)nc1N

$$$$
