REMARK SMILES O=C(O)CN1C(=O)c2cccc3cccc(c23)C1=O
REMARK SMILES IDX 4 1 2 2 1 3 3 4 5 5 6 6 18 7 7 8 8 9 16 10 19 11 9 12 17 13
REMARK SMILES IDX 15 14 10 15 12 16 14 17 11 18 13 19
REMARK H PARENT
REMARK Flexibility Score: inf
ROOT
ATOM      1  C   UNL     1       2.677  -0.361  -0.544  1.00  0.00     0.127 C 
ENDROOT
BRANCH   1   2
ATOM      2  C   UNL     1       3.901   0.059   0.169  1.00  0.00     0.323 C 
ATOM      3  O   UNL     1       4.994  -0.365  -0.318  1.00  0.00    -0.250 OA
ATOM      4  O   UNL     1       3.975   1.339   0.728  1.00  0.00    -0.480 OA
ENDBRANCH   1   2
BRANCH   1   5
ATOM      5  N   UNL     1       1.470  -0.155   0.241  1.00  0.00    -0.263 N 
ATOM      6  C   UNL     1       0.769   1.080   0.053  1.00  0.00     0.261 C 
ATOM      7  C   UNL     1       0.677  -1.268   0.675  1.00  0.00     0.261 C 
ATOM      8  O   UNL     1       1.345   2.008  -0.591  1.00  0.00    -0.269 OA
ATOM      9  C   UNL     1      -0.672   1.150   0.332  1.00  0.00     0.049 A 
ATOM     10  C   UNL     1      -0.786  -1.211   0.697  1.00  0.00     0.049 A 
ATOM     11  O   UNL     1       1.209  -2.396   0.705  1.00  0.00    -0.269 OA
ATOM     12  C   UNL     1      -1.350   2.322   0.048  1.00  0.00    -0.049 A 
ATOM     13  C   UNL     1      -1.435  -0.001   0.483  1.00  0.00     0.007 A 
ATOM     14  C   UNL     1      -1.575  -2.349   0.598  1.00  0.00    -0.049 A 
ATOM     15  C   UNL     1      -2.716   2.370   0.167  1.00  0.00    -0.061 A 
ATOM     16  C   UNL     1      -2.785   0.016   0.160  1.00  0.00    -0.017 A 
ATOM     17  C   UNL     1      -2.812  -2.323  -0.031  1.00  0.00    -0.061 A 
ATOM     18  C   UNL     1      -3.451   1.212   0.151  1.00  0.00    -0.054 A 
ATOM     19  C   UNL     1      -3.433  -1.127  -0.294  1.00  0.00    -0.054 A 
ENDBRANCH   1   5
TORSDOF 2

