REMARK SMILES c1ccc(-c2ccc(CNc3nc(-c4ccccn4)nnc3-c3ccccc3)cc2)cc1
REMARK SMILES IDX 9 1 8 2 5 3 6 4 30 5 7 6 29 7 4 8 1 9 2 10 32 11 3 12 31 13
REMARK SMILES IDX 10 14 11 15 12 16 22 17 13 18 21 19 20 20 23 21 24 22 28 23
REMARK SMILES IDX 25 24 27 25 26 26 14 27 15 28 19 29 16 30 18 31 17 32
REMARK H PARENT
REMARK Flexibility Score: inf
ROOT
ATOM      1  C   UNL     1       0.610   1.046   1.435  1.00  0.00     0.042 C 
ENDROOT
BRANCH   1   2
ATOM      2  C   UNL     1       1.631   0.478   0.501  1.00  0.00    -0.029 A 
ATOM      3  C   UNL     1       4.293   0.174  -0.322  1.00  0.00    -0.018 A 
ATOM      4  C   UNL     1       3.510   1.190  -0.856  1.00  0.00    -0.054 A 
ATOM      5  C   UNL     1       3.596  -0.889   0.237  1.00  0.00    -0.054 A 
ATOM      6  C   UNL     1       2.172   1.282  -0.494  1.00  0.00    -0.057 A 
ATOM      7  C   UNL     1       2.353  -0.666   0.815  1.00  0.00    -0.057 A 
BRANCH   3   8
ATOM      8  C   UNL     1       5.740   0.331  -0.146  1.00  0.00    -0.018 A 
ATOM      9  C   UNL     1       8.357   0.613   0.677  1.00  0.00    -0.062 A 
ATOM     10  C   UNL     1       7.795  -0.618   0.473  1.00  0.00    -0.062 A 
ATOM     11  C   UNL     1       7.544   1.722   0.621  1.00  0.00    -0.062 A 
ATOM     12  C   UNL     1       6.529  -0.781  -0.033  1.00  0.00    -0.054 A 
ATOM     13  C   UNL     1       6.249   1.575   0.161  1.00  0.00    -0.054 A 
ENDBRANCH   3   8
ENDBRANCH   1   2
BRANCH   1  14
ATOM     14  N   UNL     1      -0.626   0.287   1.262  1.00  0.00    -0.364 N 
BRANCH  14  15
ATOM     15  C   UNL     1      -1.427   0.442   0.092  1.00  0.00     0.157 A 
ATOM     16  N   UNL     1      -2.299   1.470  -0.056  1.00  0.00    -0.206 NA
ATOM     17  C   UNL     1      -1.547  -0.671  -0.727  1.00  0.00     0.135 A 
ATOM     18  C   UNL     1      -3.265   1.451  -1.006  1.00  0.00     0.202 A 
ATOM     19  N   UNL     1      -2.216  -0.462  -1.884  1.00  0.00    -0.144 NA
ATOM     20  N   UNL     1      -3.063   0.560  -2.007  1.00  0.00    -0.127 NA
BRANCH  17  21
ATOM     21  C   UNL     1      -1.367  -2.027  -0.194  1.00  0.00     0.006 A 
ATOM     22  C   UNL     1      -1.688  -3.106  -0.982  1.00  0.00    -0.053 A 
ATOM     23  C   UNL     1      -1.190  -2.276   1.152  1.00  0.00    -0.053 A 
ATOM     24  C   UNL     1      -2.113  -4.289  -0.388  1.00  0.00    -0.062 A 
ATOM     25  C   UNL     1      -1.771  -3.379   1.767  1.00  0.00    -0.062 A 
ATOM     26  C   UNL     1      -2.371  -4.329   0.978  1.00  0.00    -0.062 A 
ENDBRANCH  17  21
BRANCH  18  27
ATOM     27  C   UNL     1      -4.609   1.961  -0.708  1.00  0.00     0.110 A 
ATOM     28  C   UNL     1      -4.976   2.370   0.565  1.00  0.00    -0.032 A 
ATOM     29  N   UNL     1      -5.632   1.648  -1.536  1.00  0.00    -0.253 NA
ATOM     30  C   UNL     1      -6.202   2.016   1.113  1.00  0.00    -0.058 A 
ATOM     31  C   UNL     1      -6.896   1.504  -1.069  1.00  0.00     0.028 A 
ATOM     32  C   UNL     1      -7.123   1.372   0.296  1.00  0.00    -0.044 A 
ENDBRANCH  18  27
ENDBRANCH  14  15
ENDBRANCH   1  14
TORSDOF 6

