REMARK SMILES CCOC(=O)[C@H](Cc1ccccc1)NC(=O)c1cc(Cl)c(OCCN2CCN(C)CC2)c(Cl)c1O
REMARK SMILES IDX 17 1 18 2 19 3 20 4 21 5 32 6 33 7 34 8 35 9 15 10 14 11
REMARK SMILES IDX 16 12 6 13 4 14 5 15 3 16 2 17 1 18 7 19 8 20 9 21 13 22
REMARK SMILES IDX 10 23 12 24 11 25 22 26 23 27 24 28 25 29 26 30 31 31 27 32
REMARK SMILES IDX 30 33 28 34 29 35
REMARK H PARENT
REMARK Flexibility Score: inf
ROOT
ATOM      1  C   UNL     1      -0.270   0.179   0.425  1.00  0.00     0.084 A 
ATOM      2  C   UNL     1       0.701   1.155   0.415  1.00  0.00    -0.023 A 
ATOM      3  C   UNL     1       1.982   0.818  -0.008  1.00  0.00     0.085 A 
ATOM      4  Cl  UNL     1       3.253   2.022  -0.164  1.00  0.00    -0.080 Cl
ATOM      5  C   UNL     1       2.315  -0.480  -0.376  1.00  0.00     0.160 A 
ATOM      6  C   UNL     1       1.281  -1.355  -0.656  1.00  0.00     0.127 A 
ATOM      7  Cl  UNL     1       1.597  -3.033  -1.075  1.00  0.00    -0.076 Cl
ATOM      8  C   UNL     1      -0.009  -0.957  -0.332  1.00  0.00     0.150 A 
ATOM      9  O   UNL     1      -1.030  -1.888  -0.562  1.00  0.00    -0.505 OA
ENDROOT
BRANCH   1  10
ATOM     10  C   UNL     1      -1.636   0.372   0.853  1.00  0.00     0.255 C 
ATOM     11  N   UNL     1      -2.494   1.438   0.510  1.00  0.00    -0.338 N 
ATOM     12  O   UNL     1      -2.211  -0.658   1.319  1.00  0.00    -0.269 OA
BRANCH  11  13
ATOM     13  C   UNL     1      -3.736   1.005  -0.413  1.00  0.00     0.131 C 
BRANCH  13  14
ATOM     14  C   UNL     1      -4.029   2.551  -0.883  1.00  0.00     0.328 C 
ATOM     15  O   UNL     1      -3.211   2.768  -1.833  1.00  0.00    -0.250 OA
BRANCH  14  16
ATOM     16  O   UNL     1      -4.068   3.489   0.107  1.00  0.00    -0.464 OA
BRANCH  16  17
ATOM     17  C   UNL     1      -4.279   4.835  -0.315  1.00  0.00     0.089 C 
ATOM     18  C   UNL     1      -3.749   5.213  -0.552  1.00  0.00    -0.031 C 
ENDBRANCH  16  17
ENDBRANCH  14  16
ENDBRANCH  13  14
BRANCH  13  19
ATOM     19  C   UNL     1      -4.811   1.091   0.872  1.00  0.00     0.003 C 
BRANCH  19  20
ATOM     20  C   UNL     1      -5.550  -0.203   0.723  1.00  0.00    -0.045 A 
ATOM     21  C   UNL     1      -5.918  -0.694  -0.525  1.00  0.00    -0.059 A 
ATOM     22  C   UNL     1      -5.777  -1.067   1.785  1.00  0.00    -0.059 A 
ATOM     23  C   UNL     1      -6.267  -2.030  -0.683  1.00  0.00    -0.062 A 
ATOM     24  C   UNL     1      -5.567  -2.420   1.538  1.00  0.00    -0.062 A 
ATOM     25  C   UNL     1      -5.694  -2.897   0.239  1.00  0.00    -0.062 A 
ENDBRANCH  19  20
ENDBRANCH  13  19
ENDBRANCH  11  13
ENDBRANCH   1  10
BRANCH   5  26
ATOM     26  O   UNL     1       3.577  -0.985  -0.110  1.00  0.00    -0.489 OA
BRANCH  26  27
ATOM     27  C   UNL     1       3.733  -1.939   0.937  1.00  0.00     0.101 C 
BRANCH  27  28
ATOM     28  C   UNL     1       4.861  -2.865   0.511  1.00  0.00     0.033 C 
BRANCH  28  29
ATOM     29  N   UNL     1       6.004  -2.002   0.247  1.00  0.00    -0.297 NA
ATOM     30  C   UNL     1       6.101  -0.981   1.263  1.00  0.00     0.011 C 
ATOM     31  C   UNL     1       5.884  -1.450  -1.094  1.00  0.00     0.011 C 
ATOM     32  C   UNL     1       6.227   0.409   0.685  1.00  0.00     0.011 C 
ATOM     33  C   UNL     1       7.110  -0.592  -1.326  1.00  0.00     0.011 C 
ATOM     34  N   UNL     1       7.181   0.494  -0.383  1.00  0.00    -0.304 NA
ATOM     35  C   UNL     1       8.499   0.656   0.194  1.00  0.00    -0.013 C 
ENDBRANCH  28  29
ENDBRANCH  27  28
ENDBRANCH  26  27
ENDBRANCH   5  26
TORSDOF 11

