
     RDKit          3D

 25 26  0  0  0  0  0  0  0  0999 V2000
    6.6850    1.2995   -0.9868 C   0  0  0  0  0  0  0  0  0  0  0  0
    5.9425    0.2895   -0.1693 C   0  0  0  0  0  0  0  0  0  0  0  0
    6.2565   -1.0406   -0.4083 C   0  0  0  0  0  0  0  0  0  0  0  0
    5.5667   -1.9795    0.3272 C   0  0  0  0  0  0  0  0  0  0  0  0
    6.0827   -3.3743    0.2845 C   0  0  0  0  0  0  0  0  0  0  0  0
    4.3991   -1.6242    0.9645 C   0  0  0  0  0  0  0  0  0  0  0  0
    3.8769   -0.3373    0.9285 C   0  0  0  0  0  0  0  0  0  0  0  0
    2.4507   -0.2231    0.8373 N   0  0  0  0  0  0  0  0  0  0  0  0
    1.8068    0.4245   -0.2597 C   0  0  0  0  0  0  0  0  0  0  0  0
    2.4610    1.3707   -0.7929 O   0  0  0  0  0  0  0  0  0  0  0  0
    0.7343   -0.2411   -1.0625 C   0  0  0  0  0  0  0  0  0  0  0  0
   -0.6141    0.0188   -0.5188 C   0  0  0  0  0  0  0  0  0  0  0  0
   -1.4976    0.8712   -1.1704 C   0  0  0  0  0  0  0  0  0  0  0  0
   -2.4681    1.4436   -0.3582 C   0  0  0  0  0  0  0  0  0  0  0  0
   -3.0765    0.5854    0.5477 C   0  0  0  0  0  0  0  0  0  0  0  0
   -4.2718    1.0078    1.1267 O   0  0  0  0  0  0  0  0  0  0  0  0
   -5.4473    1.0077    0.3438 C   0  0  0  0  0  0  0  0  0  0  0  0
   -5.0924    1.3195   -1.0866 C   0  0  0  0  0  0  0  0  0  0  0  0
   -6.3701    2.0725    0.8860 C   0  0  0  0  0  0  0  0  0  0  0  0
   -6.1043   -0.3319    0.4548 C   0  0  0  0  0  0  0  0  0  0  0  0
   -5.6687   -1.3121   -0.2138 O   0  0  0  0  0  0  0  0  0  0  0  0
   -6.8323   -0.6516    1.5965 O   0  0  0  0  0  0  0  0  0  0  0  0
   -2.3551   -0.4574    1.1113 C   0  0  0  0  0  0  0  0  0  0  0  0
   -1.1573   -0.7556    0.4927 C   0  0  0  0  0  0  0  0  0  0  0  0
    4.6932    0.6181    0.3364 C   0  0  0  0  0  0  0  0  0  0  0  0
  1  2  1  0
  2  3  2  0
  3  4  1  0
  4  5  1  0
  4  6  2  0
  6  7  1  0
  7  8  1  0
  8  9  1  0
  9 10  2  0
  9 11  1  0
 11 12  1  0
 12 13  2  0
 13 14  1  0
 14 15  2  0
 15 16  1  0
 16 17  1  0
 17 18  1  0
 17 19  1  0
 17 20  1  0
 20 21  2  0
 20 22  1  0
 15 23  1  0
 23 24  2  0
  7 25  2  0
 25  2  1  0
 24 12  1  0
M  END
>  <zinc_id>  (1) 
ZINC000001481819

>  <smiles>  (1) 
Cc1cc(C)cc(NC(=O)Cc2ccc(OC(C)(C)C(=O)O)cc2)c1

$$$$
