
     RDKit          3D

 23 26  0  0  0  0  0  0  0  0999 V2000
   -3.5907   -3.3407    0.7326 N   0  0  0  0  0  0  0  0  0  0  0  0
   -3.4616   -2.3273    0.3359 C   0  0  0  0  0  0  0  0  0  0  0  0
   -3.5957   -1.0057   -0.3034 C   0  0  0  0  0  0  0  0  0  0  0  0
   -2.6655   -0.0271    0.6822 C   0  0  2  0  0  0  0  0  0  0  0  0
   -2.9280    1.3467   -0.2236 C   0  0  0  0  0  0  0  0  0  0  0  0
   -4.1591    1.9732    0.3368 C   0  0  0  0  0  0  0  0  0  0  0  0
   -5.2455    1.6421   -0.6403 C   0  0  0  0  0  0  0  0  0  0  0  0
   -4.6284    0.9979   -1.8399 C   0  0  0  0  0  0  0  0  0  0  0  0
   -3.1255    0.9541   -1.6170 C   0  0  0  0  0  0  0  0  0  0  0  0
   -1.3363   -0.3795   -0.1377 N   0  0  0  0  0  0  0  0  0  0  0  0
   -0.3304    0.5174    0.0285 C   0  0  0  0  0  0  0  0  0  0  0  0
    0.8626   -0.1406    0.1643 C   0  0  0  0  0  0  0  0  0  0  0  0
    2.1464    0.4430   -0.1809 C   0  0  0  0  0  0  0  0  0  0  0  0
    2.2999    1.4489   -1.0664 N   0  0  0  0  0  0  0  0  0  0  0  0
    3.5171    1.6833   -1.6112 C   0  0  0  0  0  0  0  0  0  0  0  0
    4.5995    0.9558   -1.2720 N   0  0  0  0  0  0  0  0  0  0  0  0
    4.5627    0.2520   -0.1398 C   0  0  0  0  0  0  0  0  0  0  0  0
    5.5360   -0.3568    0.5470 N   0  0  0  0  0  0  0  0  0  0  0  0
    4.9464   -0.8612    1.6514 C   0  0  0  0  0  0  0  0  0  0  0  0
    3.5662   -0.7630    1.5415 C   0  0  0  0  0  0  0  0  0  0  0  0
    3.3143   -0.0423    0.3952 C   0  0  0  0  0  0  0  0  0  0  0  0
    0.5223   -1.4554    0.3752 C   0  0  0  0  0  0  0  0  0  0  0  0
   -0.8067   -1.5147    0.3221 N   0  0  0  0  0  0  0  0  0  0  0  0
  1  2  3  0
  2  3  1  0
  4  3  1  6
  4  5  1  0
  5  6  1  0
  6  7  1  0
  7  8  1  0
  8  9  1  0
  4 10  1  0
 10 11  1  0
 11 12  2  0
 12 13  1  0
 13 14  2  0
 14 15  1  0
 15 16  2  0
 16 17  1  0
 17 18  1  0
 18 19  1  0
 19 20  2  0
 20 21  1  0
 12 22  1  0
 22 23  2  0
  9  5  1  0
 23 10  1  0
 21 13  1  0
 21 17  2  0
M  END
>  <zinc_id>  (1) 
ZINC000043207851

>  <smiles>  (1) 
N#CC[C@H](C1CCCC1)n1cc(-c2ncnc3[nH]ccc23)cn1

$$$$
