
     RDKit          3D

 29 32  0  0  0  0  0  0  0  0999 V2000
    0.3929    2.4102    0.4872 C   0  0  0  0  0  0  0  0  0  0  0  0
   -0.8199    1.6075    0.2065 C   0  0  0  0  0  0  0  0  0  0  0  0
   -1.9715    2.1509   -0.3392 C   0  0  0  0  0  0  0  0  0  0  0  0
   -3.0287    1.3262   -0.5038 N   0  0  0  0  0  0  0  0  0  0  0  0
   -3.1420    0.1673    0.1855 C   0  0  0  0  0  0  0  0  0  0  0  0
   -4.3563   -0.6338    0.1376 C   0  0  0  0  0  0  0  0  0  0  0  0
   -4.2874   -2.0008    0.2962 C   0  0  0  0  0  0  0  0  0  0  0  0
   -5.4715   -2.6452    0.6201 C   0  0  0  0  0  0  0  0  0  0  0  0
   -6.6974   -2.0055    0.5452 C   0  0  0  0  0  0  0  0  0  0  0  0
   -6.7249   -0.6423    0.2788 C   0  0  0  0  0  0  0  0  0  0  0  0
   -5.5541    0.0238   -0.0352 C   0  0  0  0  0  0  0  0  0  0  0  0
   -5.5139    1.3356   -0.7120 C   0  0  0  0  0  0  0  0  0  0  0  0
   -6.0555    1.2902   -2.1175 C   0  0  0  0  0  0  0  0  0  0  0  0
   -6.0970    2.4511    0.1103 C   0  0  0  0  0  0  0  0  0  0  0  0
   -2.0298   -0.3116    0.7552 N   0  0  0  0  0  0  0  0  0  0  0  0
   -0.8306    0.2916    0.6434 C   0  0  0  0  0  0  0  0  0  0  0  0
    0.4015   -0.3990    0.8763 N   0  0  0  0  0  0  0  0  0  0  0  0
    1.0222   -1.2176   -0.1588 C   0  0  0  0  0  0  0  0  0  0  0  0
    2.4833   -0.9617   -0.1197 C   0  0  0  0  0  0  0  0  0  0  0  0
    3.2681   -1.2288    0.9824 C   0  0  0  0  0  0  0  0  0  0  0  0
    4.4697   -0.5665    1.1980 C   0  0  0  0  0  0  0  0  0  0  0  0
    5.0879    0.0788    0.1471 C   0  0  0  0  0  0  0  0  0  0  0  0
    6.5125    0.1685    0.0472 N   0  0  0  0  0  0  0  0  0  0  0  0
    7.4055   -0.2525    0.9617 C   0  0  0  0  0  0  0  0  0  0  0  0
    8.5771   -0.5578    0.2803 C   0  0  0  0  0  0  0  0  0  0  0  0
    8.3399   -0.3371   -1.0287 N   0  0  0  0  0  0  0  0  0  0  0  0
    7.2184    0.3769   -1.0488 N   0  0  0  0  0  0  0  0  0  0  0  0
    4.3088    0.3605   -0.9547 C   0  0  0  0  0  0  0  0  0  0  0  0
    3.0925   -0.2792   -1.1593 C   0  0  0  0  0  0  0  0  0  0  0  0
  1  2  1  0
  2  3  2  0
  3  4  1  0
  4  5  2  0
  5  6  1  0
  6  7  2  0
  7  8  1  0
  8  9  2  0
  9 10  1  0
 10 11  2  0
 11 12  1  0
 12 13  1  0
 12 14  1  0
  5 15  1  0
 15 16  2  0
 16 17  1  0
 17 18  1  0
 18 19  1  0
 19 20  2  0
 20 21  1  0
 21 22  2  0
 22 23  1  0
 23 24  1  0
 24 25  2  0
 25 26  1  0
 26 27  2  0
 22 28  1  0
 28 29  2  0
 16  2  1  0
 29 19  1  0
 11  6  1  0
 27 23  1  0
M  END
>  <zinc_id>  (1) 
ZINC000098023188

>  <smiles>  (1) 
Cc1cnc(-c2ccccc2C(C)C)nc1NCc1ccc(-n2ccnn2)cc1

$$$$
