REMARK SMILES Cc1ccnc2c1NC(=O)c1cccnc1N2C1CC1
REMARK SMILES IDX 1 1 2 2 3 3 4 4 5 5 6 6 7 7 8 8 9 9 10 10 11 11 12 12 13 13
REMARK SMILES IDX 14 14 15 15 16 16 17 17 18 18 19 19 20 20
REMARK H PARENT
REMARK Flexibility Score: inf
ROOT
ATOM      1  C   UNL     1      -3.637  -2.052  -0.255  1.00  0.00    -0.038 C 
ATOM      2  C   UNL     1      -2.970  -0.861   0.317  1.00  0.00    -0.022 A 
ATOM      3  C   UNL     1      -3.612   0.059   1.106  1.00  0.00    -0.039 A 
ATOM      4  C   UNL     1      -2.902   1.128   1.628  1.00  0.00     0.030 A 
ATOM      5  N   UNL     1      -1.868   1.556   0.869  1.00  0.00    -0.237 NA
ATOM      6  C   UNL     1      -1.129   0.630   0.210  1.00  0.00     0.158 A 
ATOM      7  C   UNL     1      -1.649  -0.637  -0.019  1.00  0.00     0.088 A 
ATOM      8  N   UNL     1      -0.977  -1.804  -0.506  1.00  0.00    -0.318 N 
ATOM      9  C   UNL     1       0.431  -2.011  -0.654  1.00  0.00     0.259 C 
ATOM     10  O   UNL     1       0.829  -3.073  -1.187  1.00  0.00    -0.269 OA
ATOM     11  C   UNL     1       1.539  -1.087  -0.383  1.00  0.00     0.083 A 
ATOM     12  C   UNL     1       2.663  -1.776   0.056  1.00  0.00    -0.044 A 
ATOM     13  C   UNL     1       3.693  -1.038   0.623  1.00  0.00    -0.043 A 
ATOM     14  C   UNL     1       3.604   0.344   0.705  1.00  0.00     0.029 A 
ATOM     15  N   UNL     1       2.495   0.986   0.262  1.00  0.00    -0.238 NA
ATOM     16  C   UNL     1       1.424   0.282  -0.174  1.00  0.00     0.147 A 
ATOM     17  N   UNL     1       0.235   1.038   0.091  1.00  0.00    -0.305 N 
ENDROOT
BRANCH  17  18
ATOM     18  C   UNL     1       0.378   2.462  -0.090  1.00  0.00     0.037 C 
ATOM     19  C   UNL     1      -0.016   2.924  -1.518  1.00  0.00    -0.030 C 
ATOM     20  C   UNL     1       1.469   2.930  -1.079  1.00  0.00    -0.030 C 
ENDBRANCH  17  18
TORSDOF 1

