
     RDKit          3D

 34 38  0  0  0  0  0  0  0  0999 V2000
   -7.0713    3.7674    2.1729 N   0  0  0  0  0  0  0  0  0  0  0  0
   -7.6489    3.1212    1.0121 C   0  0  0  0  0  0  0  0  0  0  0  0
   -6.6498    2.2324    0.3672 C   0  0  0  0  0  0  0  0  0  0  0  0
   -7.0856    1.1428   -0.0972 O   0  0  0  0  0  0  0  0  0  0  0  0
   -5.3726    2.6728   -0.0601 N   0  0  0  0  0  0  0  0  0  0  0  0
   -4.3258    1.7252   -0.2088 C   0  0  0  0  0  0  0  0  0  0  0  0
   -2.9916    2.0824   -0.3210 C   0  0  0  0  0  0  0  0  0  0  0  0
   -1.9960    1.1174   -0.4183 C   0  0  0  0  0  0  0  0  0  0  0  0
   -2.2881   -0.1934   -0.1062 C   0  0  0  0  0  0  0  0  0  0  0  0
   -1.2872   -1.1761    0.1130 N   0  0  0  0  0  0  0  0  0  0  0  0
   -1.5272   -2.4341    0.4063 N   0  0  0  0  0  0  0  0  0  0  0  0
   -0.4643   -3.2117    0.1423 C   0  0  0  0  0  0  0  0  0  0  0  0
   -0.3578   -4.6847    0.2635 C   0  0  0  0  0  0  0  0  0  0  0  0
   -0.5211   -5.2959   -0.9696 F   0  0  0  0  0  0  0  0  0  0  0  0
   -1.3750   -5.1318    1.0705 F   0  0  0  0  0  0  0  0  0  0  0  0
    0.8580   -5.0562    0.7854 F   0  0  0  0  0  0  0  0  0  0  0  0
    0.4461   -2.3860   -0.4789 C   0  0  0  0  0  0  0  0  0  0  0  0
   -0.0274   -1.0892   -0.3218 C   0  0  0  0  0  0  0  0  0  0  0  0
    0.7986    0.1183   -0.1904 C   0  0  0  0  0  0  0  0  0  0  0  0
    1.2977    0.5334    1.0382 C   0  0  0  0  0  0  0  0  0  0  0  0
    2.6183    0.9278    1.2010 C   0  0  0  0  0  0  0  0  0  0  0  0
    3.4352    1.0813    0.0891 C   0  0  0  0  0  0  0  0  0  0  0  0
    2.7871    1.0946   -1.1407 C   0  0  0  0  0  0  0  0  0  0  0  0
    3.6209    1.3047   -2.2330 C   0  0  0  0  0  0  0  0  0  0  0  0
    4.9839    1.5205   -2.0710 C   0  0  0  0  0  0  0  0  0  0  0  0
    5.5886    1.2139   -0.8598 C   0  0  0  0  0  0  0  0  0  0  0  0
    6.9271    1.5279   -0.6775 C   0  0  0  0  0  0  0  0  0  0  0  0
    7.4638    1.3271    0.5849 C   0  0  0  0  0  0  0  0  0  0  0  0
    6.7249    0.6225    1.5216 C   0  0  0  0  0  0  0  0  0  0  0  0
    5.3802    0.3829    1.3679 C   0  0  0  0  0  0  0  0  0  0  0  0
    4.7874    0.7772    0.1853 C   0  0  0  0  0  0  0  0  0  0  0  0
    1.5395    0.5019   -1.3016 C   0  0  0  0  0  0  0  0  0  0  0  0
   -3.6370   -0.5285   -0.1184 C   0  0  0  0  0  0  0  0  0  0  0  0
   -4.6306    0.3918   -0.3769 C   0  0  0  0  0  0  0  0  0  0  0  0
  1  2  1  0
  2  3  1  0
  3  4  2  0
  3  5  1  0
  5  6  1  0
  6  7  2  0
  7  8  1  0
  8  9  2  0
  9 10  1  0
 10 11  1  0
 11 12  2  0
 12 13  1  0
 13 14  1  0
 13 15  1  0
 13 16  1  0
 12 17  1  0
 17 18  2  0
 18 19  1  0
 19 20  2  0
 20 21  1  0
 21 22  2  0
 22 23  1  0
 23 24  1  0
 24 25  2  0
 25 26  1  0
 26 27  2  0
 27 28  1  0
 28 29  2  0
 29 30  1  0
 30 31  2  0
 23 32  2  0
  9 33  1  0
 33 34  2  0
 34  6  1  0
 18 10  1  0
 32 19  1  0
 31 22  1  0
 31 26  1  0
M  END
>  <zinc_id>  (1) 
ZINC000003960083

>  <smiles>  (1) 
NCC(=O)Nc1ccc(-n2nc(C(F)(F)F)cc2-c2ccc3c(ccc4ccccc43)c2)cc1

$$$$
