REMARK SMILES FCc1ccc(OCCOc2ccc(Cl)cc2Cl)c(Cl)n1
REMARK SMILES IDX 8 1 7 2 6 3 3 4 4 5 21 6 5 7 19 8 20 9 2 10 1 11 9 12 10 13
REMARK SMILES IDX 11 14 12 15 17 16 13 17 16 18 18 19 14 20 15 21
REMARK H PARENT
REMARK Flexibility Score: inf
ROOT
ATOM      1  C   UNL     1       0.076   0.519  -0.715  1.00  0.00     0.122 C 
ENDROOT
BRANCH   1   2
ATOM      2  O   UNL     1      -0.934   0.471   0.290  1.00  0.00    -0.487 OA
BRANCH   2   3
ATOM      3  C   UNL     1      -2.226   0.146  -0.112  1.00  0.00     0.156 A 
ATOM      4  C   UNL     1      -4.852  -0.338  -0.205  1.00  0.00     0.074 A 
ATOM      5  C   UNL     1      -3.989  -1.396  -0.459  1.00  0.00    -0.034 A 
ATOM      6  N   UNL     1      -4.424   0.875  -0.620  1.00  0.00    -0.235 NA
ATOM      7  C   UNL     1      -2.628  -1.165  -0.335  1.00  0.00    -0.015 A 
ATOM      8  C   UNL     1      -3.094   1.120  -0.589  1.00  0.00     0.171 A 
ATOM      9  Cl  UNL     1      -2.567   2.757  -0.835  1.00  0.00    -0.058 Cl
BRANCH   4  10
ATOM     10  C   UNL     1      -6.254  -0.559   0.268  1.00  0.00     0.131 C 
ATOM     11  F   UNL     1      -6.209  -0.478   1.655  1.00  0.00    -0.244 F 
ENDBRANCH   4  10
ENDBRANCH   2   3
ENDBRANCH   1   2
BRANCH   1  12
ATOM     12  C   UNL     1       0.932  -0.724  -0.498  1.00  0.00     0.122 C 
BRANCH  12  13
ATOM     13  O   UNL     1       1.523  -0.561   0.790  1.00  0.00    -0.488 OA
BRANCH  13  14
ATOM     14  C   UNL     1       2.885  -0.249   0.793  1.00  0.00     0.138 A 
ATOM     15  C   UNL     1       3.258   1.073   0.973  1.00  0.00    -0.017 A 
ATOM     16  C   UNL     1       3.853  -1.167   0.475  1.00  0.00     0.084 A 
ATOM     17  C   UNL     1       4.473   1.478   0.442  1.00  0.00    -0.040 A 
ATOM     18  C   UNL     1       5.034  -0.761  -0.132  1.00  0.00    -0.021 A 
ATOM     19  Cl  UNL     1       3.435  -2.876   0.508  1.00  0.00    -0.080 Cl
ATOM     20  C   UNL     1       5.258   0.601  -0.295  1.00  0.00     0.042 A 
ATOM     21  Cl  UNL     1       6.450   1.234  -1.399  1.00  0.00    -0.084 Cl
ENDBRANCH  13  14
ENDBRANCH  12  13
ENDBRANCH   1  12
TORSDOF 6

