
     RDKit          3D

 27 30  0  0  0  0  0  0  0  0999 V2000
    7.9738   -0.9944   -0.8688 O   0  0  0  0  0  0  0  0  0  0  0  0
    7.1303   -0.5145   -0.0526 C   0  0  0  0  0  0  0  0  0  0  0  0
    6.4546   -1.5127    0.8344 C   0  0  0  0  0  0  0  0  0  0  0  0
    5.1343   -1.8477    0.1503 C   0  0  0  0  0  0  0  0  0  0  0  0
    4.3422   -0.5898   -0.0175 C   0  0  0  0  0  0  0  0  0  0  0  0
    2.9840   -0.6403    0.1490 C   0  0  0  0  0  0  0  0  0  0  0  0
    2.3289    0.5037    0.5592 C   0  0  0  0  0  0  0  0  0  0  0  0
    1.0601    0.4919    1.1296 O   0  0  0  0  0  0  0  0  0  0  0  0
   -0.0013    0.9522    0.3294 C   0  0  0  0  0  0  0  0  0  0  0  0
   -0.1853    0.0821   -0.9075 C   0  0  0  0  0  0  0  0  0  0  0  0
   -1.0549   -1.0902   -0.5022 C   0  0  0  0  0  0  0  0  0  0  0  0
   -2.4828   -0.8422   -0.9110 C   0  0  0  0  0  0  0  0  0  0  0  0
   -3.4577   -1.4458    0.0186 C   0  0  0  0  0  0  0  0  0  0  0  0
   -3.7754   -2.7614    0.0781 N   0  0  0  0  0  0  0  0  0  0  0  0
   -4.4469   -2.8944    1.2213 N   0  0  0  0  0  0  0  0  0  0  0  0
   -4.8307   -1.6913    1.6159 N   0  0  0  0  0  0  0  0  0  0  0  0
   -4.4270   -0.8098    0.7127 N   0  0  0  0  0  0  0  0  0  0  0  0
   -4.5764    0.6162    0.9044 C   0  0  0  0  0  0  0  0  0  0  0  0
   -3.8591    1.4130   -0.1487 C   0  0  0  0  0  0  0  0  0  0  0  0
   -4.7721    2.2592   -0.9869 C   0  0  0  0  0  0  0  0  0  0  0  0
   -5.7351    3.0890   -0.1894 C   0  0  0  0  0  0  0  0  0  0  0  0
   -6.1514    2.4522    1.1068 C   0  0  0  0  0  0  0  0  0  0  0  0
   -6.0617    0.9531    0.9616 C   0  0  0  0  0  0  0  0  0  0  0  0
    2.8691    1.7043    0.1708 C   0  0  0  0  0  0  0  0  0  0  0  0
    4.2291    1.8235    0.0237 C   0  0  0  0  0  0  0  0  0  0  0  0
    4.9631    0.6525   -0.0094 C   0  0  0  0  0  0  0  0  0  0  0  0
    6.3482    0.6417   -0.3755 N   0  0  0  0  0  0  0  0  0  0  0  0
  1  2  2  0
  2  3  1  0
  3  4  1  0
  4  5  1  0
  5  6  2  0
  6  7  1  0
  7  8  1  0
  8  9  1  0
  9 10  1  0
 10 11  1  0
 11 12  1  0
 12 13  1  0
 13 14  2  0
 14 15  1  0
 15 16  2  0
 16 17  1  0
 17 18  1  0
 18 19  1  0
 19 20  1  0
 20 21  1  0
 21 22  1  0
 22 23  1  0
  7 24  2  0
 24 25  1  0
 25 26  2  0
 26 27  1  0
 27  2  1  0
 26  5  1  0
 17 13  1  0
 23 18  1  0
M  END
>  <zinc_id>  (1) 
ZINC000001552174

>  <smiles>  (1) 
O=C1CCc2cc(OCCCCc3nnnn3C3CCCCC3)ccc2N1

$$$$
