REMARK SMILES CCOC(=O)[C@H](C)C[C@@H](Cc1ccc(-c2ccccc2)cc1)NC(=O)CCC(=O)O
REMARK SMILES IDX 8 1 6 2 7 3 4 4 5 5 3 6 2 7 1 8 9 9 10 10 11 11 12 12 22 13
REMARK SMILES IDX 13 14 21 15 14 16 15 17 16 18 20 19 17 20 19 21 18 22 23 23
REMARK SMILES IDX 24 24 25 25 26 26 27 27 28 28 29 29 30 30
REMARK H PARENT
REMARK Flexibility Score: inf
ROOT
ATOM      1  C   UNL     1      -1.087   1.209   0.624  1.00  0.00    -0.019 C 
ENDROOT
BRANCH   1   2
ATOM      2  C   UNL     1      -0.983   2.279  -0.646  1.00  0.00     0.056 C 
ATOM      3  C   UNL     1      -2.146   1.535  -1.578  1.00  0.00    -0.052 C 
BRANCH   2   4
ATOM      4  C   UNL     1      -2.079   3.280   0.026  1.00  0.00     0.308 C 
ATOM      5  O   UNL     1      -3.140   2.749   0.402  1.00  0.00    -0.252 OA
BRANCH   4   6
ATOM      6  O   UNL     1      -2.216   4.504  -0.642  1.00  0.00    -0.466 OA
BRANCH   6   7
ATOM      7  C   UNL     1      -2.895   5.500   0.128  1.00  0.00     0.088 C 
ATOM      8  C   UNL     1      -2.412   6.838  -0.344  1.00  0.00    -0.031 C 
ENDBRANCH   6   7
ENDBRANCH   4   6
ENDBRANCH   2   4
ENDBRANCH   1   2
BRANCH   1   9
ATOM      9  C   UNL     1      -1.212  -0.218  -0.226  1.00  0.00     0.034 C 
BRANCH   9  10
ATOM     10  C   UNL     1      -0.700  -1.107   1.090  1.00  0.00    -0.007 C 
BRANCH  10  11
ATOM     11  C   UNL     1       0.785  -1.011   0.930  1.00  0.00    -0.046 A 
ATOM     12  C   UNL     1       1.478   0.071   1.424  1.00  0.00    -0.058 A 
ATOM     13  C   UNL     1       1.327  -1.753  -0.099  1.00  0.00    -0.058 A 
ATOM     14  C   UNL     1       2.821   0.201   1.121  1.00  0.00    -0.054 A 
ATOM     15  C   UNL     1       2.646  -1.617  -0.463  1.00  0.00    -0.054 A 
ATOM     16  C   UNL     1       3.365  -0.585   0.129  1.00  0.00    -0.018 A 
BRANCH  16  17
ATOM     17  C   UNL     1       4.734  -0.400  -0.365  1.00  0.00    -0.018 A 
ATOM     18  C   UNL     1       5.135   0.887  -0.594  1.00  0.00    -0.054 A 
ATOM     19  C   UNL     1       5.665  -1.337   0.021  1.00  0.00    -0.054 A 
ATOM     20  C   UNL     1       6.486   1.129  -0.777  1.00  0.00    -0.062 A 
ATOM     21  C   UNL     1       7.003  -1.114  -0.279  1.00  0.00    -0.062 A 
ATOM     22  C   UNL     1       7.366   0.081  -0.836  1.00  0.00    -0.062 A 
ENDBRANCH  16  17
ENDBRANCH  10  11
ENDBRANCH   9  10
BRANCH   9  23
ATOM     23  N   UNL     1      -2.740  -0.376   0.219  1.00  0.00    -0.353 N 
ATOM     24  C   UNL     1      -3.436  -1.403  -0.446  1.00  0.00     0.220 C 
ATOM     25  O   UNL     1      -3.055  -1.975  -1.494  1.00  0.00    -0.275 OA
BRANCH  24  26
ATOM     26  C   UNL     1      -4.843  -1.629   0.003  1.00  0.00     0.037 C 
BRANCH  26  27
ATOM     27  C   UNL     1      -5.108  -3.106   0.046  1.00  0.00     0.054 C 
BRANCH  27  28
ATOM     28  C   UNL     1      -3.851  -3.846   0.340  1.00  0.00     0.303 C 
ATOM     29  O   UNL     1      -3.555  -4.078   1.553  1.00  0.00    -0.252 OA
ATOM     30  O   UNL     1      -3.352  -4.706  -0.618  1.00  0.00    -0.481 OA
ENDBRANCH  27  28
ENDBRANCH  26  27
ENDBRANCH  24  26
ENDBRANCH   9  23
ENDBRANCH   1   9
TORSDOF 12

