
     RDKit          3D

 37 43  0  0  0  0  0  0  0  0999 V2000
    8.5424   -4.2770    0.8350 C   0  0  0  0  0  0  0  0  0  0  0  0
    8.3989   -2.9374    0.4031 C   0  0  0  0  0  0  0  0  0  0  0  0
    8.2767   -1.7720    1.1544 C   0  0  0  0  0  0  0  0  0  0  0  0
    7.5433   -0.8482    0.5635 N   0  0  0  0  0  0  0  0  0  0  0  0
    6.7075    0.1716    0.8905 C   0  0  0  0  0  0  0  0  0  0  0  0
    6.2527    0.7374   -0.2947 C   0  0  0  0  0  0  0  0  0  0  0  0
    4.9083    1.3348   -0.5690 C   0  0  0  0  0  0  0  0  0  0  0  0
    3.8125    0.4749   -0.0171 C   0  0  0  0  0  0  0  0  0  0  0  0
    3.7696   -0.7011   -0.4914 O   0  0  0  0  0  0  0  0  0  0  0  0
    2.6929    1.0418    0.6775 N   0  0  0  0  0  0  0  0  0  0  0  0
    1.4808    0.2339    0.7957 C   0  0  0  0  0  0  0  0  0  0  0  0
    0.6903    0.3231   -0.5057 C   0  0  0  0  0  0  0  0  0  0  0  0
    0.5111    1.7751   -0.8085 C   0  0  0  0  0  0  0  0  0  0  0  0
   -0.5847    2.1808   -1.7203 C   0  0  0  0  0  0  0  0  0  0  0  0
   -1.4304    2.4155   -0.5482 N   0  0  0  0  0  0  0  0  0  0  0  0
   -1.9433    0.9803   -0.0961 C   0  0  2  0  0  0  0  0  0  0  0  0
   -2.5037    0.6380   -1.6183 C   0  0  0  0  0  0  0  0  0  0  0  0
   -3.3276    1.8992   -1.8249 C   0  0  0  0  0  0  0  0  0  0  0  0
   -4.1916    1.6306   -0.6294 C   0  0  0  0  0  0  0  0  0  0  0  0
   -5.4189    0.9756   -0.6168 C   0  0  0  0  0  0  0  0  0  0  0  0
   -5.9102    0.3399    0.5194 C   0  0  0  0  0  0  0  0  0  0  0  0
   -6.5793   -0.9669    0.4098 C   0  0  0  0  0  0  0  0  0  0  0  0
   -7.5955   -1.3457    1.2670 C   0  0  0  0  0  0  0  0  0  0  0  0
   -8.4848   -2.2786    0.7916 C   0  0  0  0  0  0  0  0  0  0  0  0
   -9.7076   -2.5610    1.6045 C   0  0  0  0  0  0  0  0  0  0  0  0
   -8.1071   -3.1291   -0.1939 N   0  0  0  0  0  0  0  0  0  0  0  0
   -6.9200   -2.9250   -0.7934 C   0  0  0  0  0  0  0  0  0  0  0  0
   -6.0945   -1.9502   -0.3886 N   0  0  0  0  0  0  0  0  0  0  0  0
   -5.2206    0.6512    1.6873 C   0  0  0  0  0  0  0  0  0  0  0  0
   -3.9422    1.1998    1.6395 C   0  0  0  0  0  0  0  0  0  0  0  0
   -3.3644    1.5716    0.4265 C   0  0  0  0  0  0  0  0  0  0  0  0
   -0.2325    2.5433    0.2746 C   0  0  0  0  0  0  0  0  0  0  0  0
    1.8524    2.4697   -1.0127 C   0  0  0  0  0  0  0  0  0  0  0  0
    2.4625    2.4568    0.3859 C   0  0  0  0  0  0  0  0  0  0  0  0
    7.2562    0.4836   -1.1699 N   0  0  0  0  0  0  0  0  0  0  0  0
    7.8771   -0.6459   -0.7343 C   0  0  0  0  0  0  0  0  0  0  0  0
    8.5241   -2.1905   -1.1418 S   0  0  0  0  0  0  0  0  0  0  0  0
  1  2  1  0
  2  3  2  0
  3  4  1  0
  4  5  1  0
  5  6  2  0
  6  7  1  0
  7  8  1  0
  8  9  2  0
  8 10  1  0
 10 11  1  0
 11 12  1  0
 12 13  1  0
 13 14  1  0
 14 15  1  0
 16 15  1  6
 16 17  1  0
 17 18  1  0
 18 19  1  0
 19 20  2  0
 20 21  1  0
 21 22  1  0
 22 23  2  0
 23 24  1  0
 24 25  1  0
 24 26  2  0
 26 27  1  0
 27 28  2  0
 21 29  2  0
 29 30  1  0
 30 31  2  0
 15 32  1  0
 13 33  1  0
 33 34  1  0
  6 35  1  0
 35 36  2  0
 36 37  1  0
 37  2  1  0
 36  4  1  0
 34 10  1  0
 32 13  1  0
 31 16  1  0
 31 19  1  0
 28 22  1  0
M  END
>  <zinc_id>  (1) 
ZINC000072317087

>  <smiles>  (1) 
Cc1cc(-c2ccc3c(c2)CC[C@H]3N2CC3(CCN(C(=O)Cc4cn5cc(C)sc5n4)CC3)C2)ncn1

$$$$
