
     RDKit          3D

 38 43  0  0  0  0  0  0  0  0999 V2000
    1.9036   -2.7119   -1.8701 C   0  0  0  0  0  0  0  0  0  0  0  0
    0.7277   -2.4890   -0.9725 C   0  0  0  0  0  0  0  0  0  0  0  0
   -0.6087   -2.4535   -1.3505 C   0  0  0  0  0  0  0  0  0  0  0  0
   -1.2270   -1.5612   -0.5033 C   0  0  0  0  0  0  0  0  0  0  0  0
   -2.5326   -0.9077   -0.6358 C   0  0  0  0  0  0  0  0  0  0  0  0
   -3.7556   -1.4872   -0.7162 N   0  0  0  0  0  0  0  0  0  0  0  0
   -4.6611   -0.4855   -0.8039 C   0  0  0  0  0  0  0  0  0  0  0  0
   -6.1232   -0.5664   -0.6903 C   0  0  0  0  0  0  0  0  0  0  0  0
   -6.9206    0.1779   -1.5519 C   0  0  0  0  0  0  0  0  0  0  0  0
   -8.1186    0.7454   -1.1328 C   0  0  0  0  0  0  0  0  0  0  0  0
   -8.4449    0.7523    0.2182 C   0  0  0  0  0  0  0  0  0  0  0  0
   -8.9797    1.8736    0.8504 O   0  0  0  0  0  0  0  0  0  0  0  0
   -8.3552    3.1345    0.8618 C   0  0  0  0  0  0  0  0  0  0  0  0
   -6.9897    3.0094    0.7135 F   0  0  0  0  0  0  0  0  0  0  0  0
   -8.5911    3.8200    2.0499 F   0  0  0  0  0  0  0  0  0  0  0  0
   -8.8473    3.8649   -0.2120 F   0  0  0  0  0  0  0  0  0  0  0  0
   -7.8855   -0.2844    0.9565 C   0  0  0  0  0  0  0  0  0  0  0  0
   -6.7166   -0.8972    0.5220 C   0  0  0  0  0  0  0  0  0  0  0  0
   -3.9110    0.6427   -0.7759 N   0  0  0  0  0  0  0  0  0  0  0  0
   -2.7850    0.3143   -0.2095 O   0  0  0  0  0  0  0  0  0  0  0  0
   -0.3836   -1.3734    0.5117 N   0  0  0  0  0  0  0  0  0  0  0  0
    0.8412   -1.7770    0.1752 N   0  0  0  0  0  0  0  0  0  0  0  0
    1.9572   -1.6532    1.0770 C   0  0  0  0  0  0  0  0  0  0  0  0
    3.2714   -1.7603    0.3692 C   0  0  0  0  0  0  0  0  0  0  0  0
    4.0122   -2.8990    0.6664 C   0  0  0  0  0  0  0  0  0  0  0  0
    5.2830   -2.9432    0.1092 C   0  0  0  0  0  0  0  0  0  0  0  0
    5.9716   -1.7964   -0.0046 N   0  0  0  0  0  0  0  0  0  0  0  0
    5.3788   -0.5836    0.0955 C   0  0  0  0  0  0  0  0  0  0  0  0
    6.2260    0.4884    0.5109 N   0  0  0  0  0  0  0  0  0  0  0  0
    6.8900    0.4000    1.7974 C   0  0  0  0  0  0  0  0  0  0  0  0
    8.3774    0.5965    1.7016 C   0  0  0  0  0  0  0  0  0  0  0  0
    8.7465    1.6226    0.7508 N   0  0  0  0  0  0  0  0  0  0  0  0
    9.5086    1.0894   -0.3530 C   0  0  0  0  0  0  0  0  0  0  0  0
    9.7162    1.9609   -1.5366 C   0  0  0  0  0  0  0  0  0  0  0  0
    8.8606    0.6672   -1.6136 C   0  0  0  0  0  0  0  0  0  0  0  0
    7.6253    2.4250    0.3346 C   0  0  0  0  0  0  0  0  0  0  0  0
    6.5264    1.6313   -0.3145 C   0  0  0  0  0  0  0  0  0  0  0  0
    4.0132   -0.5864    0.2981 C   0  0  0  0  0  0  0  0  0  0  0  0
  1  2  1  0
  2  3  2  0
  3  4  1  0
  4  5  1  0
  5  6  2  0
  6  7  1  0
  7  8  1  0
  8  9  2  0
  9 10  1  0
 10 11  2  0
 11 12  1  0
 12 13  1  0
 13 14  1  0
 13 15  1  0
 13 16  1  0
 11 17  1  0
 17 18  2  0
  7 19  2  0
 19 20  1  0
  4 21  2  0
 21 22  1  0
 22 23  1  0
 23 24  1  0
 24 25  2  0
 25 26  1  0
 26 27  2  0
 27 28  1  0
 28 29  1  0
 29 30  1  0
 30 31  1  0
 31 32  1  0
 32 33  1  0
 33 34  1  0
 34 35  1  0
 32 36  1  0
 36 37  1  0
 28 38  2  0
 22  2  1  0
 38 24  1  0
 20  5  1  0
 37 29  1  0
 18  8  1  0
 35 33  1  0
M  END
>  <zinc_id>  (1) 
ZINC000068206550

>  <smiles>  (1) 
Cc1cc(-c2nc(-c3ccc(OC(F)(F)F)cc3)no2)nn1Cc1ccnc(N2CCN(C3CC3)CC2)c1

$$$$
