REMARK SMILES N=C(N)c1ccc2cc(OC(=O)c3ccc(N=C(N)N)cc3)ccc2c1
REMARK SMILES IDX 11 1 12 2 10 3 9 4 4 5 5 6 26 7 6 8 25 9 7 10 24 11 8 12
REMARK SMILES IDX 23 13 2 14 1 15 3 16 13 17 14 18 22 19 15 20 21 21 16 22
REMARK SMILES IDX 17 23 18 24 19 25 20 26
REMARK H PARENT
REMARK Flexibility Score: inf
ROOT
ATOM      1  C   UNL     1      -1.306   1.488   0.166  1.00  0.00     0.343 C 
ATOM      2  O   UNL     1      -0.771   2.140  -0.757  1.00  0.00    -0.246 OA
ENDROOT
BRANCH   1   3
ATOM      3  O   UNL     1      -0.534   0.579   0.854  1.00  0.00    -0.423 OA
BRANCH   3   4
ATOM      4  C   UNL     1       0.835   0.471   0.765  1.00  0.00     0.131 A 
ATOM      5  C   UNL     1       5.518  -0.512  -0.660  1.00  0.00     0.017 A 
ATOM      6  C   UNL     1       4.949   0.271  -1.643  1.00  0.00    -0.051 A 
ATOM      7  C   UNL     1       4.838  -0.571   0.545  1.00  0.00    -0.043 A 
ATOM      8  C   UNL     1       3.636   0.706  -1.505  1.00  0.00    -0.054 A 
ATOM      9  C   UNL     1       3.526  -0.190   0.674  1.00  0.00    -0.017 A 
ATOM     10  C   UNL     1       2.956   0.611  -0.304  1.00  0.00    -0.015 A 
ATOM     11  C   UNL     1       2.844  -0.262   1.883  1.00  0.00    -0.051 A 
ATOM     12  C   UNL     1       1.578   0.788  -0.344  1.00  0.00    -0.011 A 
ATOM     13  C   UNL     1       1.490  -0.051   1.876  1.00  0.00    -0.019 A 
BRANCH   5  14
ATOM     14  C   UNL     1       6.973  -0.702  -0.604  1.00  0.00     0.122 C 
ATOM     15  N   UNL     1       7.704   0.146   0.058  1.00  0.00    -0.284 NA
ATOM     16  N   UNL     1       7.484  -2.025  -0.760  1.00  0.00    -0.384 N 
ENDBRANCH   5  14
ENDBRANCH   3   4
ENDBRANCH   1   3
BRANCH   1  17
ATOM     17  C   UNL     1      -2.742   1.198   0.077  1.00  0.00     0.060 A 
ATOM     18  C   UNL     1      -3.458   0.730   1.170  1.00  0.00    -0.046 A 
ATOM     19  C   UNL     1      -3.426   1.213  -1.127  1.00  0.00    -0.046 A 
ATOM     20  C   UNL     1      -4.610  -0.031   1.029  1.00  0.00    -0.035 A 
ATOM     21  C   UNL     1      -4.490   0.333  -1.285  1.00  0.00    -0.035 A 
ATOM     22  C   UNL     1      -4.898  -0.498  -0.248  1.00  0.00     0.067 A 
BRANCH  22  23
ATOM     23  N   UNL     1      -5.745  -1.622  -0.461  1.00  0.00    -0.216 NA
ATOM     24  C   UNL     1      -6.992  -1.461  -0.133  1.00  0.00     0.191 C 
ATOM     25  N   UNL     1      -7.754  -2.581   0.260  1.00  0.00    -0.370 N 
ATOM     26  N   UNL     1      -7.604  -0.168  -0.153  1.00  0.00    -0.370 N 
ENDBRANCH  22  23
ENDBRANCH   1  17
TORSDOF 5

