
     RDKit          3D

 30 33  0  0  0  0  0  0  0  0999 V2000
   -4.3483    2.9037   -0.0181 N   0  0  0  0  0  0  0  0  0  0  0  0
   -4.9633    1.9236    0.0205 C   0  0  0  0  0  0  0  0  0  0  0  0
   -5.5207    0.5732   -0.1269 C   0  0  0  0  0  0  0  0  0  0  0  0
   -4.4603   -0.4673    0.0479 C   0  0  0  0  0  0  0  0  0  0  0  0
   -3.4671   -0.3056    0.9973 C   0  0  0  0  0  0  0  0  0  0  0  0
   -2.1928   -0.8377    0.8363 C   0  0  0  0  0  0  0  0  0  0  0  0
   -1.7969   -1.2785   -0.3971 C   0  0  0  0  0  0  0  0  0  0  0  0
   -0.5206   -1.0290   -0.9727 N   0  0  0  0  0  0  0  0  0  0  0  0
    0.6943   -1.0564   -0.2404 C   0  0  0  0  0  0  0  0  0  0  0  0
    0.6312   -0.8283    0.9836 O   0  0  0  0  0  0  0  0  0  0  0  0
    1.9386   -1.3554   -0.9520 C   0  0  0  0  0  0  0  0  0  0  0  0
    1.9556   -2.4074   -1.8574 C   0  0  0  0  0  0  0  0  0  0  0  0
    3.0222   -2.4909   -2.7172 C   0  0  0  0  0  0  0  0  0  0  0  0
    4.2292   -1.8902   -2.3964 C   0  0  0  0  0  0  0  0  0  0  0  0
    4.2691   -1.1892   -1.2625 N   0  0  0  0  0  0  0  0  0  0  0  0
    3.1719   -0.8899   -0.5263 C   0  0  0  0  0  0  0  0  0  0  0  0
    3.2717   -0.1741    0.6915 N   0  0  0  0  0  0  0  0  0  0  0  0
    4.4389   -0.4515    1.5231 C   0  0  0  0  0  0  0  0  0  0  0  0
    5.3841    0.7011    1.4058 C   0  0  0  0  0  0  0  0  0  0  0  0
    6.2372    0.8193    0.3323 C   0  0  0  0  0  0  0  0  0  0  0  0
    6.5421    2.0638   -0.1803 C   0  0  0  0  0  0  0  0  0  0  0  0
    6.2961    3.1498    0.5761 N   0  0  0  0  0  0  0  0  0  0  0  0
    5.4948    3.1147    1.6545 C   0  0  0  0  0  0  0  0  0  0  0  0
    4.9946    1.8750    2.0350 C   0  0  0  0  0  0  0  0  0  0  0  0
   -2.8141   -1.6566   -1.2658 C   0  0  0  0  0  0  0  0  0  0  0  0
   -4.1314   -1.2872   -1.0242 C   0  0  0  0  0  0  0  0  0  0  0  0
   -6.6235    0.4293    0.8833 C   0  0  0  0  0  0  0  0  0  0  0  0
   -7.9257    0.6799    0.1769 C   0  0  0  0  0  0  0  0  0  0  0  0
   -7.6252    0.8770   -1.2802 C   0  0  0  0  0  0  0  0  0  0  0  0
   -6.1816    0.4849   -1.4742 C   0  0  0  0  0  0  0  0  0  0  0  0
  1  2  3  0
  2  3  1  0
  3  4  1  0
  4  5  2  0
  5  6  1  0
  6  7  2  0
  7  8  1  0
  8  9  1  0
  9 10  2  0
  9 11  1  0
 11 12  2  0
 12 13  1  0
 13 14  2  0
 14 15  1  0
 15 16  2  0
 16 17  1  0
 17 18  1  0
 18 19  1  0
 19 20  2  0
 20 21  1  0
 21 22  2  0
 22 23  1  0
 23 24  2  0
  7 25  1  0
 25 26  2  0
  3 27  1  0
 27 28  1  0
 28 29  1  0
 29 30  1  0
 30  3  1  0
 26  4  1  0
 16 11  1  0
 24 19  1  0
M  END
>  <zinc_id>  (1) 
ZINC000070466461

>  <smiles>  (1) 
N#CC1(c2ccc(NC(=O)c3cccnc3NCc3ccncc3)cc2)CCCC1

$$$$
