REMARK SMILES N#Cc1ccc(-c2ccc(S(=O)(=O)Nc3cccc(N)n3)cc2)cc1
REMARK SMILES IDX 7 1 8 2 9 3 10 4 22 5 23 6 6 7 3 8 4 9 25 10 5 11 24 12 2 13
REMARK SMILES IDX 1 14 11 15 12 16 13 17 14 18 15 19 16 20 21 21 17 22 19 23
REMARK SMILES IDX 18 24 20 25
REMARK H PARENT
REMARK Flexibility Score: inf
ROOT
ATOM      1  C   UNL     1      -1.659  -0.098  -0.803  1.00  0.00    -0.018 A 
ATOM      2  C   UNL     1      -0.574   0.717  -1.104  1.00  0.00    -0.053 A 
ATOM      3  C   UNL     1       0.544   0.686  -0.278  1.00  0.00    -0.041 A 
ATOM      4  C   UNL     1       0.437   0.229   1.030  1.00  0.00     0.087 A 
ATOM      5  C   UNL     1      -0.842  -0.058   1.485  1.00  0.00    -0.041 A 
ATOM      6  C   UNL     1      -1.728  -0.521   0.519  1.00  0.00    -0.053 A 
ENDROOT
BRANCH   1   7
ATOM      7  C   UNL     1      -2.937   0.132  -1.492  1.00  0.00    -0.018 A 
ATOM      8  C   UNL     1      -5.743   0.247  -1.225  1.00  0.00     0.052 A 
ATOM      9  C   UNL     1      -4.968   1.401  -1.179  1.00  0.00    -0.044 A 
ATOM     10  C   UNL     1      -5.116  -0.852  -1.801  1.00  0.00    -0.044 A 
ATOM     11  C   UNL     1      -3.598   1.353  -1.413  1.00  0.00    -0.053 A 
ATOM     12  C   UNL     1      -3.733  -0.924  -1.922  1.00  0.00    -0.053 A 
BRANCH   8  13
ATOM     13  C   UNL     1      -6.863   0.089  -0.323  1.00  0.00     0.099 C 
ATOM     14  N   UNL     1      -7.688   0.007   0.499  1.00  0.00    -0.192 NA
ENDBRANCH   8  13
ENDBRANCH   1   7
BRANCH   4  15
ATOM     15  S   UNL     1       1.708   0.477   2.184  1.00  0.00     0.263 S 
ATOM     16  O   UNL     1       1.315   1.635   3.074  1.00  0.00    -0.201 OA
ATOM     17  O   UNL     1       1.941  -0.696   3.071  1.00  0.00    -0.201 OA
BRANCH  15  18
ATOM     18  N   UNL     1       3.134   0.894   1.327  1.00  0.00    -0.263 N 
BRANCH  18  19
ATOM     19  C   UNL     1       4.026  -0.078   0.781  1.00  0.00     0.142 A 
ATOM     20  C   UNL     1       3.536  -1.105  -0.017  1.00  0.00    -0.018 A 
ATOM     21  N   UNL     1       5.356   0.165   0.694  1.00  0.00    -0.214 NA
ATOM     22  C   UNL     1       4.320  -1.624  -1.013  1.00  0.00    -0.055 A 
ATOM     23  C   UNL     1       6.074  -0.175  -0.405  1.00  0.00     0.125 A 
ATOM     24  C   UNL     1       5.676  -1.339  -1.041  1.00  0.00    -0.020 A 
ATOM     25  N   UNL     1       7.381   0.342  -0.647  1.00  0.00    -0.384 N 
ENDBRANCH  18  19
ENDBRANCH  15  18
ENDBRANCH   4  15
TORSDOF 5

