
     RDKit          3D

 27 30  0  0  0  0  0  0  0  0999 V2000
    0.8285    3.3006    2.5539 O   0  0  0  0  0  0  0  0  0  0  0  0
    0.5679    3.4861    1.3263 C   0  0  0  0  0  0  0  0  0  0  0  0
   -0.0107    4.6483    0.7211 N   0  0  0  0  0  0  0  0  0  0  0  0
   -0.4207    4.3196   -0.6113 C   0  0  0  0  0  0  0  0  0  0  0  0
   -0.8418    5.0987   -1.5142 O   0  0  0  0  0  0  0  0  0  0  0  0
   -0.4616    2.8516   -0.6250 C   0  0  0  0  0  0  0  0  0  0  0  0
   -1.0487    1.9232   -1.4766 C   0  0  0  0  0  0  0  0  0  0  0  0
   -0.5918    0.6115   -1.4179 C   0  0  0  0  0  0  0  0  0  0  0  0
   -1.4494   -0.5017   -1.6973 N   0  0  0  0  0  0  0  0  0  0  0  0
   -2.4808   -0.8566   -0.7698 C   0  0  0  0  0  0  0  0  0  0  0  0
   -3.8138   -0.7449   -1.0686 C   0  0  0  0  0  0  0  0  0  0  0  0
   -4.7589   -1.4373   -0.3252 C   0  0  0  0  0  0  0  0  0  0  0  0
   -4.4085   -2.2745    0.7191 C   0  0  0  0  0  0  0  0  0  0  0  0
   -5.3332   -3.1142    1.2429 F   0  0  0  0  0  0  0  0  0  0  0  0
   -3.0583   -2.4205    0.9754 C   0  0  0  0  0  0  0  0  0  0  0  0
   -2.1214   -1.7374    0.2403 C   0  0  0  0  0  0  0  0  0  0  0  0
    0.5989    0.3291   -0.7581 C   0  0  0  0  0  0  0  0  0  0  0  0
    1.3742   -0.7467   -1.3003 N   0  0  0  0  0  0  0  0  0  0  0  0
    2.3720   -1.4248   -0.5282 C   0  0  0  0  0  0  0  0  0  0  0  0
    2.4154   -2.8040   -0.6939 C   0  0  0  0  0  0  0  0  0  0  0  0
    3.3137   -3.5073    0.0995 C   0  0  0  0  0  0  0  0  0  0  0  0
    4.2876   -2.8147    0.7670 C   0  0  0  0  0  0  0  0  0  0  0  0
    5.1353   -3.5049    1.5678 F   0  0  0  0  0  0  0  0  0  0  0  0
    4.6130   -1.5589    0.2705 C   0  0  0  0  0  0  0  0  0  0  0  0
    3.6123   -0.8232   -0.3521 C   0  0  0  0  0  0  0  0  0  0  0  0
    1.1366    1.2249    0.1590 C   0  0  0  0  0  0  0  0  0  0  0  0
    0.5441    2.4779    0.2585 C   0  0  0  0  0  0  0  0  0  0  0  0
  1  2  2  0
  2  3  1  0
  3  4  1  0
  4  5  2  0
  4  6  1  0
  6  7  2  0
  7  8  1  0
  8  9  1  0
  9 10  1  0
 10 11  2  0
 11 12  1  0
 12 13  2  0
 13 14  1  0
 13 15  1  0
 15 16  2  0
  8 17  2  0
 17 18  1  0
 18 19  1  0
 19 20  2  0
 20 21  1  0
 21 22  2  0
 22 23  1  0
 22 24  1  0
 24 25  2  0
 17 26  1  0
 26 27  2  0
 27  2  1  0
 27  6  1  0
 16 10  1  0
 25 19  1  0
M  END
>  <zinc_id>  (1) 
ZINC000000600430

>  <smiles>  (1) 
O=C1NC(=O)c2cc(Nc3ccc(F)cc3)c(Nc3ccc(F)cc3)cc21

$$$$
