REMARK SMILES COC(=O)N(C)c1c(N)nc(-c2nn(Cc3ccccc3F)c3ncccc23)nc1N
REMARK SMILES IDX 7 1 8 2 9 3 10 4 11 5 29 6 30 7 31 8 5 9 6 10 3 11 4 12 2 13
REMARK SMILES IDX 1 14 12 15 13 16 28 17 14 18 23 19 27 20 24 21 26 22 25 23
REMARK SMILES IDX 15 24 16 25 17 26 21 27 18 28 20 29 22 30 19 31
REMARK H PARENT
REMARK Flexibility Score: inf
ROOT
ATOM      1  C   UNL     1      -3.225  -1.062  -0.376  1.00  0.00     0.132 A 
ATOM      2  C   UNL     1      -2.908   0.261  -0.625  1.00  0.00     0.154 A 
ATOM      3  N   UNL     1      -3.646   0.967  -1.630  1.00  0.00    -0.382 N 
ATOM      4  N   UNL     1      -1.823   0.763  -0.023  1.00  0.00    -0.207 NA
ATOM      5  C   UNL     1      -0.833  -0.007   0.491  1.00  0.00     0.184 A 
ATOM      6  N   UNL     1      -1.137  -1.315   0.658  1.00  0.00    -0.207 NA
ATOM      7  C   UNL     1      -2.282  -1.859   0.228  1.00  0.00     0.154 A 
ATOM      8  N   UNL     1      -2.463  -3.276   0.165  1.00  0.00    -0.382 N 
ENDROOT
BRANCH   1   9
ATOM      9  N   UNL     1      -4.593  -1.474  -0.478  1.00  0.00    -0.274 N 
ATOM     10  C   UNL     1      -4.939  -2.889  -0.464  1.00  0.00     0.018 C 
BRANCH   9  11
ATOM     11  C   UNL     1      -5.647  -0.579  -0.099  1.00  0.00     0.413 C 
ATOM     12  O   UNL     1      -6.472  -0.204  -0.979  1.00  0.00    -0.224 OA
BRANCH  11  13
ATOM     13  O   UNL     1      -5.673   0.025   1.162  1.00  0.00    -0.452 OA
ATOM     14  C   UNL     1      -6.204   1.338   1.259  1.00  0.00     0.083 C 
ENDBRANCH  11  13
ENDBRANCH   9  11
ENDBRANCH   1   9
BRANCH   5  15
ATOM     15  C   UNL     1       0.574   0.396   0.362  1.00  0.00     0.139 A 
ATOM     16  N   UNL     1       1.400  -0.030  -0.623  1.00  0.00    -0.166 NA
ATOM     17  C   UNL     1       1.131   1.590   0.785  1.00  0.00     0.050 A 
ATOM     18  N   UNL     1       2.361   0.850  -0.832  1.00  0.00    -0.242 N 
ATOM     19  C   UNL     1       2.198   1.933  -0.036  1.00  0.00     0.158 A 
ATOM     20  C   UNL     1       0.782   2.456   1.812  1.00  0.00    -0.047 A 
ATOM     21  N   UNL     1       2.573   3.229  -0.158  1.00  0.00    -0.237 NA
ATOM     22  C   UNL     1       1.639   3.529   2.028  1.00  0.00    -0.043 A 
ATOM     23  C   UNL     1       2.248   4.032   0.884  1.00  0.00     0.029 A 
BRANCH  18  24
ATOM     24  C   UNL     1       3.451   0.659  -1.774  1.00  0.00     0.071 C 
BRANCH  24  25
ATOM     25  C   UNL     1       4.160  -0.590  -1.355  1.00  0.00     0.009 A 
ATOM     26  C   UNL     1       3.510  -1.813  -1.444  1.00  0.00    -0.054 A 
ATOM     27  C   UNL     1       5.029  -0.455  -0.278  1.00  0.00     0.128 A 
ATOM     28  C   UNL     1       4.259  -2.920  -1.077  1.00  0.00    -0.062 A 
ATOM     29  C   UNL     1       5.590  -1.551   0.324  1.00  0.00    -0.026 A 
ATOM     30  F   UNL     1       5.554   0.773  -0.005  1.00  0.00    -0.207 F 
ATOM     31  C   UNL     1       5.386  -2.776  -0.286  1.00  0.00    -0.059 A 
ENDBRANCH  24  25
ENDBRANCH  18  24
ENDBRANCH   5  15
TORSDOF 6

