
     RDKit          3D

 30 34  0  0  0  0  0  0  0  0999 V2000
    3.0456   -0.0104    0.1915 C   0  0  0  0  0  0  0  0  0  0  0  0
    3.1742   -0.0875    0.0594 C   0  0  0  0  0  0  0  0  0  0  0  0
    2.1731   -0.1268   -0.9691 N   0  0  0  0  0  0  0  0  0  0  0  0
    1.3413    1.0476   -0.7887 C   0  0  0  0  0  0  0  0  0  0  0  0
   -0.0538    0.8592   -1.3121 C   0  0  0  0  0  0  0  0  0  0  0  0
   -0.7627   -0.1405   -0.4145 C   0  0  0  0  0  0  0  0  0  0  0  0
   -1.7681    0.4749    0.4080 N   0  0  0  0  0  0  0  0  0  0  0  0
   -1.9373    1.8187    0.4700 C   0  0  0  0  0  0  0  0  0  0  0  0
   -1.3410    2.8972   -0.1722 C   0  0  0  0  0  0  0  0  0  0  0  0
   -1.9324    4.1450   -0.2328 C   0  0  0  0  0  0  0  0  0  0  0  0
   -3.2020    4.3308    0.2774 C   0  0  0  0  0  0  0  0  0  0  0  0
   -3.7338    3.3021    1.0441 C   0  0  0  0  0  0  0  0  0  0  0  0
   -3.1634    2.0397    1.0827 C   0  0  0  0  0  0  0  0  0  0  0  0
   -3.5976    0.8109    1.4483 N   0  0  0  0  0  0  0  0  0  0  0  0
   -3.0062   -0.0518    0.5814 C   0  0  0  0  0  0  0  0  0  0  0  0
   -3.1773   -1.6326    0.8097 C   0  0  2  0  0  0  0  0  0  0  0  0
   -2.6299   -1.9724   -0.6947 C   0  0  0  0  0  0  0  0  0  0  0  0
   -3.5383   -3.0358   -1.2476 C   0  0  0  0  0  0  0  0  0  0  0  0
   -4.1917   -3.8297   -0.1295 C   0  0  0  0  0  0  0  0  0  0  0  0
   -5.1536   -2.9769    0.5636 N   0  0  0  0  0  0  0  0  0  0  0  0
   -4.7362   -1.6032    0.3138 C   0  0  0  0  0  0  0  0  0  0  0  0
    0.3105   -0.8456    0.3789 C   0  0  0  0  0  0  0  0  0  0  0  0
    1.3533   -1.2955   -0.6388 C   0  0  0  0  0  0  0  0  0  0  0  0
    3.5694   -1.4052    0.6171 C   0  0  0  0  0  0  0  0  0  0  0  0
    4.9056   -1.4419    1.2708 C   0  0  0  0  0  0  0  0  0  0  0  0
    5.8320   -2.2106    0.3360 C   0  0  0  0  0  0  0  0  0  0  0  0
    6.3962   -1.2131   -0.6590 C   0  0  0  0  0  0  0  0  0  0  0  0
    6.4000    0.1895   -0.0799 C   0  0  0  0  0  0  0  0  0  0  0  0
    5.3020    0.9453   -0.8197 C   0  0  0  0  0  0  0  0  0  0  0  0
    4.1221    1.0185    0.0822 C   0  0  0  0  0  0  0  0  0  0  0  0
  1  2  1  0
  2  3  1  0
  3  4  1  0
  4  5  1  0
  5  6  1  0
  6  7  1  0
  7  8  1  0
  8  9  2  0
  9 10  1  0
 10 11  2  0
 11 12  1  0
 12 13  2  0
 13 14  1  0
 14 15  2  0
 16 15  1  6
 16 17  1  0
 17 18  1  0
 18 19  1  0
 19 20  1  0
 20 21  1  0
  6 22  1  0
 22 23  1  0
  2 24  1  0
 24 25  1  0
 25 26  1  0
 26 27  1  0
 27 28  1  0
 28 29  1  0
 29 30  1  0
 30  2  1  0
 23  3  1  0
 15  7  1  0
 21 16  1  0
 13  8  1  0
M  END
>  <zinc_id>  (1) 
ZINC000040934902

>  <smiles>  (1) 
CC1(N2CCC(n3c([C@@H]4CCCNC4)nc4ccccc43)CC2)CCCCCCC1

$$$$
