
     RDKit          3D

 21 22  0  0  0  0  0  0  0  0999 V2000
   -6.2091   -0.4785    1.6552 F   0  0  0  0  0  0  0  0  0  0  0  0
   -6.2539   -0.5594    0.2675 C   0  0  0  0  0  0  0  0  0  0  0  0
   -4.8521   -0.3378   -0.2053 C   0  0  0  0  0  0  0  0  0  0  0  0
   -3.9894   -1.3962   -0.4592 C   0  0  0  0  0  0  0  0  0  0  0  0
   -2.6284   -1.1651   -0.3346 C   0  0  0  0  0  0  0  0  0  0  0  0
   -2.2262    0.1458   -0.1118 C   0  0  0  0  0  0  0  0  0  0  0  0
   -0.9339    0.4711    0.2896 O   0  0  0  0  0  0  0  0  0  0  0  0
    0.0765    0.5195   -0.7152 C   0  0  0  0  0  0  0  0  0  0  0  0
    0.9321   -0.7235   -0.4977 C   0  0  0  0  0  0  0  0  0  0  0  0
    1.5230   -0.5614    0.7896 O   0  0  0  0  0  0  0  0  0  0  0  0
    2.8847   -0.2489    0.7934 C   0  0  0  0  0  0  0  0  0  0  0  0
    3.2584    1.0726    0.9731 C   0  0  0  0  0  0  0  0  0  0  0  0
    4.4727    1.4785    0.4419 C   0  0  0  0  0  0  0  0  0  0  0  0
    5.2575    0.6005   -0.2946 C   0  0  0  0  0  0  0  0  0  0  0  0
    6.4502    1.2342   -1.3992 Cl  0  0  0  0  0  0  0  0  0  0  0  0
    5.0344   -0.7608   -0.1318 C   0  0  0  0  0  0  0  0  0  0  0  0
    3.8530   -1.1669    0.4750 C   0  0  0  0  0  0  0  0  0  0  0  0
    3.4352   -2.8758    0.5077 Cl  0  0  0  0  0  0  0  0  0  0  0  0
   -3.0936    1.1199   -0.5891 C   0  0  0  0  0  0  0  0  0  0  0  0
   -2.5669    2.7573   -0.8347 Cl  0  0  0  0  0  0  0  0  0  0  0  0
   -4.4244    0.8750   -0.6198 N   0  0  0  0  0  0  0  0  0  0  0  0
  1  2  1  0
  2  3  1  0
  3  4  2  0
  4  5  1  0
  5  6  2  0
  6  7  1  0
  7  8  1  0
  8  9  1  0
  9 10  1  0
 10 11  1  0
 11 12  2  0
 12 13  1  0
 13 14  2  0
 14 15  1  0
 14 16  1  0
 16 17  2  0
 17 18  1  0
  6 19  1  0
 19 20  1  0
 19 21  2  0
 21  3  1  0
 17 11  1  0
M  END
>  <zinc_id>  (1) 
ZINC000066138931

>  <smiles>  (1) 
FCc1ccc(OCCOc2ccc(Cl)cc2Cl)c(Cl)n1

$$$$
