REMARK SMILES O=C(NCCS(=O)(=O)c1ccc(C(F)(F)F)cn1)c1ccc(Cl)cc1
REMARK SMILES IDX 5 1 4 2 3 3 1 4 2 5 19 6 20 7 25 8 21 9 24 10 22 11 23 12
REMARK SMILES IDX 6 13 7 14 8 15 9 16 10 17 18 18 11 19 17 20 12 21 13 22
REMARK SMILES IDX 14 23 15 24 16 25
REMARK H PARENT
REMARK Flexibility Score: inf
ROOT
ATOM      1  C   UNL     1      -0.338   1.335  -1.464  1.00  0.00     0.074 C 
ENDROOT
BRANCH   1   2
ATOM      2  C   UNL     1      -1.325   2.487  -1.316  1.00  0.00     0.032 C 
BRANCH   2   3
ATOM      3  N   UNL     1      -2.362   2.145  -0.348  1.00  0.00    -0.351 N 
ATOM      4  O   UNL     1      -1.879  -0.119  -0.418  1.00  0.00    -0.269 OA
ATOM      5  C   UNL     1      -2.759   0.785  -0.306  1.00  0.00     0.251 C 
BRANCH   5   6
ATOM      6  C   UNL     1      -4.104   0.356   0.092  1.00  0.00     0.039 A 
ATOM      7  C   UNL     1      -4.980   0.062  -0.930  1.00  0.00    -0.048 A 
ATOM      8  C   UNL     1      -4.339  -0.184   1.351  1.00  0.00    -0.048 A 
ATOM      9  C   UNL     1      -6.129  -0.682  -0.698  1.00  0.00    -0.043 A 
ATOM     10  C   UNL     1      -5.532  -0.862   1.567  1.00  0.00    -0.043 A 
ATOM     11  C   UNL     1      -6.189  -1.407   0.478  1.00  0.00     0.041 A 
ATOM     12  Cl  UNL     1      -7.050  -2.930   0.559  1.00  0.00    -0.084 Cl
ENDBRANCH   5   6
ENDBRANCH   2   3
ENDBRANCH   1   2
BRANCH   1  13
ATOM     13  S   UNL     1       1.116   1.684  -0.534  1.00  0.00     0.197 S 
ATOM     14  O   UNL     1       2.068   2.463  -1.412  1.00  0.00    -0.222 OA
ATOM     15  O   UNL     1       0.798   2.497   0.687  1.00  0.00    -0.222 OA
BRANCH  13  16
ATOM     16  C   UNL     1       1.918   0.221   0.025  1.00  0.00     0.155 A 
ATOM     17  C   UNL     1       2.215  -0.789  -0.882  1.00  0.00    -0.024 A 
ATOM     18  N   UNL     1       2.658   0.208   1.161  1.00  0.00    -0.244 NA
ATOM     19  C   UNL     1       3.402  -1.506  -0.779  1.00  0.00    -0.046 A 
ATOM     20  C   UNL     1       3.884  -0.370   1.209  1.00  0.00     0.041 A 
ATOM     21  C   UNL     1       4.369  -1.120   0.143  1.00  0.00     0.074 A 
BRANCH  21  22
ATOM     22  C   UNL     1       5.820  -1.054  -0.221  1.00  0.00     0.417 C 
ATOM     23  F   UNL     1       6.013  -2.046  -1.174  1.00  0.00    -0.166 F 
ATOM     24  F   UNL     1       6.618  -1.381   0.849  1.00  0.00    -0.166 F 
ATOM     25  F   UNL     1       6.105   0.206  -0.732  1.00  0.00    -0.166 F 
ENDBRANCH  21  22
ENDBRANCH  13  16
ENDBRANCH   1  13
TORSDOF 6

