
     RDKit          3D

 26 29  0  0  0  0  0  0  0  0999 V2000
   -2.6372   -0.9832    1.3865 O   0  0  0  0  0  0  0  0  0  0  0  0
   -3.4479   -0.5787    0.5139 C   0  0  0  0  0  0  0  0  0  0  0  0
   -4.7878   -0.6571    0.5942 N   0  0  0  0  0  0  0  0  0  0  0  0
   -5.6099   -0.4808    1.6572 C   0  0  0  0  0  0  0  0  0  0  0  0
   -6.8322    0.1630    1.5048 C   0  0  0  0  0  0  0  0  0  0  0  0
   -7.4233    0.0385    0.2534 C   0  0  0  0  0  0  0  0  0  0  0  0
   -6.5536    0.1299   -0.8264 C   0  0  0  0  0  0  0  0  0  0  0  0
   -5.2540   -0.3081   -0.6168 C   0  0  0  0  0  0  0  0  0  0  0  0
   -4.1869   -0.1528   -1.4236 N   0  0  0  0  0  0  0  0  0  0  0  0
   -3.0626   -0.1681   -0.7079 N   0  0  0  0  0  0  0  0  0  0  0  0
   -1.7578    0.3463   -1.1118 C   0  0  0  0  0  0  0  0  0  0  0  0
   -1.4007    1.5545   -0.2825 C   0  0  0  0  0  0  0  0  0  0  0  0
    0.0803    1.8487   -0.3117 C   0  0  0  0  0  0  0  0  0  0  0  0
    0.8059    0.6499    0.0244 N   0  0  0  0  0  0  0  0  0  0  0  0
    1.9713    0.8987    0.8321 C   0  0  0  0  0  0  0  0  0  0  0  0
    2.9561    1.6498   -0.0567 C   0  0  0  0  0  0  0  0  0  0  0  0
    3.3473    0.6924   -1.0889 N   0  0  0  0  0  0  0  0  0  0  0  0
    4.4665   -0.1394   -0.7611 C   0  0  0  0  0  0  0  0  0  0  0  0
    4.3649   -1.5074   -0.6757 C   0  0  0  0  0  0  0  0  0  0  0  0
    5.3121   -2.2332    0.0312 C   0  0  0  0  0  0  0  0  0  0  0  0
    6.3706   -1.6107    0.6750 C   0  0  0  0  0  0  0  0  0  0  0  0
    6.5763   -0.2658    0.4349 C   0  0  0  0  0  0  0  0  0  0  0  0
    7.7806    0.6729    1.3121 Cl  0  0  0  0  0  0  0  0  0  0  0  0
    5.6085    0.4576   -0.2516 C   0  0  0  0  0  0  0  0  0  0  0  0
    2.2581    0.1893   -1.9143 C   0  0  0  0  0  0  0  0  0  0  0  0
    1.0554   -0.2064   -1.1068 C   0  0  0  0  0  0  0  0  0  0  0  0
  1  2  2  0
  2  3  1  0
  3  4  1  0
  4  5  2  0
  5  6  1  0
  6  7  2  0
  7  8  1  0
  8  9  2  0
  9 10  1  0
 10 11  1  0
 11 12  1  0
 12 13  1  0
 13 14  1  0
 14 15  1  0
 15 16  1  0
 16 17  1  0
 17 18  1  0
 18 19  2  0
 19 20  1  0
 20 21  2  0
 21 22  1  0
 22 23  1  0
 22 24  2  0
 17 25  1  0
 25 26  1  0
 10  2  1  0
 26 14  1  0
  8  3  1  0
 24 18  1  0
M  END
>  <zinc_id>  (1) 
ZINC000000538483

>  <smiles>  (1) 
O=c1n(CCCN2CCN(c3cccc(Cl)c3)CC2)nc2ccccn12

$$$$
