
     RDKit          3D

 31 34  0  0  0  0  0  0  0  0999 V2000
   -7.9286    0.4503    0.7919 C   0  0  0  0  0  0  0  0  0  0  0  0
   -6.7787    0.1852   -0.1074 C   0  0  0  0  0  0  0  0  0  0  0  0
   -5.5203   -0.2388    0.2986 C   0  0  0  0  0  0  0  0  0  0  0  0
   -4.8390   -0.2059    1.5086 C   0  0  0  0  0  0  0  0  0  0  0  0
   -3.5451   -0.7090    1.5590 C   0  0  0  0  0  0  0  0  0  0  0  0
   -2.9634   -1.2822    0.4355 C   0  0  0  0  0  0  0  0  0  0  0  0
   -1.5390   -1.4326    0.4033 N   0  0  0  0  0  0  0  0  0  0  0  0
   -0.8826   -2.1864    1.4423 C   0  0  0  0  0  0  0  0  0  0  0  0
   -0.7719   -0.4809   -0.3431 C   0  0  0  0  0  0  0  0  0  0  0  0
   -1.3824    0.2741   -1.3350 C   0  0  0  0  0  0  0  0  0  0  0  0
   -0.8523    1.4664   -1.7942 C   0  0  0  0  0  0  0  0  0  0  0  0
    0.2429    1.9245   -1.1677 N   0  0  0  0  0  0  0  0  0  0  0  0
    0.8161    1.2232   -0.1652 C   0  0  0  0  0  0  0  0  0  0  0  0
    2.1496    1.5617    0.2252 N   0  0  0  0  0  0  0  0  0  0  0  0
    3.1572    0.5476    0.2828 C   0  0  0  0  0  0  0  0  0  0  0  0
    3.0865   -0.4419   -0.6863 C   0  0  0  0  0  0  0  0  0  0  0  0
    4.1109   -1.3604   -0.7575 C   0  0  0  0  0  0  0  0  0  0  0  0
    5.2384   -1.1966    0.0369 C   0  0  0  0  0  0  0  0  0  0  0  0
    6.3230   -2.1947    0.1108 C   0  0  0  0  0  0  0  0  0  0  0  0
    5.4699    0.0480    0.6056 C   0  0  0  0  0  0  0  0  0  0  0  0
    7.0955    0.6515    0.8848 S   0  0  0  0  0  0  0  0  0  0  0  0
    8.2145   -0.5548    0.3641 N   0  0  0  0  0  0  0  0  0  0  0  0
    7.2472    1.8861    0.0454 O   0  0  0  0  0  0  0  0  0  0  0  0
    7.2992    0.9608    2.3356 O   0  0  0  0  0  0  0  0  0  0  0  0
    4.3606    0.8392    0.8631 C   0  0  0  0  0  0  0  0  0  0  0  0
    0.4179   -0.0358    0.1156 N   0  0  0  0  0  0  0  0  0  0  0  0
   -3.6346   -1.1863   -0.7765 C   0  0  0  0  0  0  0  0  0  0  0  0
   -4.8602   -0.5428   -0.8851 C   0  0  0  0  0  0  0  0  0  0  0  0
   -5.4776    0.1590   -1.8653 N   0  0  0  0  0  0  0  0  0  0  0  0
   -6.6471    0.5749   -1.3980 N   0  0  0  0  0  0  0  0  0  0  0  0
   -7.6066    1.2966   -2.2029 C   0  0  0  0  0  0  0  0  0  0  0  0
  1  2  1  0
  2  3  2  0
  3  4  1  0
  4  5  2  0
  5  6  1  0
  6  7  1  0
  7  8  1  0
  7  9  1  0
  9 10  2  0
 10 11  1  0
 11 12  2  0
 12 13  1  0
 13 14  1  0
 14 15  1  0
 15 16  2  0
 16 17  1  0
 17 18  2  0
 18 19  1  0
 18 20  1  0
 20 21  1  0
 21 22  1  0
 21 23  2  0
 21 24  2  0
 20 25  2  0
 13 26  2  0
  6 27  2  0
 27 28  1  0
 28 29  2  0
 29 30  1  0
 30 31  1  0
 30  2  1  0
 28  3  1  0
 26  9  1  0
 25 15  1  0
M  END
>  <zinc_id>  (1) 
ZINC000011617039

>  <smiles>  (1) 
Cc1ccc(Nc2nccc(N(C)c3ccc4c(C)n(C)nc4c3)n2)cc1S(N)(=O)=O

$$$$
