
     RDKit          3D

  9  9  0  0  0  0  0  0  0  0999 V2000
    3.2571    0.3839   -0.4315 O   0  0  0  0  0  0  0  0  0  0  0  0
    2.1609    1.0238    0.1216 C   0  0  0  0  0  0  0  0  0  0  0  0
    0.9815    0.1180    0.0324 C   0  0  0  0  0  0  0  0  0  0  0  0
    0.9024   -1.2096   -0.2894 C   0  0  0  0  0  0  0  0  0  0  0  0
   -0.4463   -1.5176   -0.4200 C   0  0  0  0  0  0  0  0  0  0  0  0
   -1.1256   -0.3663   -0.0885 C   0  0  0  0  0  0  0  0  0  0  0  0
   -2.5899   -0.1416    0.0777 C   0  0  0  0  0  0  0  0  0  0  0  0
   -2.8879    1.1238   -0.4223 O   0  0  0  0  0  0  0  0  0  0  0  0
   -0.2521    0.5856    0.0639 O   0  0  0  0  0  0  0  0  0  0  0  0
  1  2  1  0
  2  3  1  0
  3  4  2  0
  4  5  1  0
  5  6  2  0
  6  7  1  0
  7  8  1  0
  6  9  1  0
  9  3  1  0
M  END
>  <zinc_id>  (1) 
ZINC000001672225

>  <smiles>  (1) 
OCc1ccc(CO)o1

$$$$
