
     RDKit          3D

 33 37  0  0  0  0  0  0  0  0999 V2000
    1.4966    0.8282   -1.7607 O   0  0  0  0  0  0  0  0  0  0  0  0
    0.6824    0.8831   -0.7902 C   0  0  0  0  0  0  0  0  0  0  0  0
   -0.5321    0.0507   -0.8822 C   0  0  0  0  0  0  0  0  0  0  0  0
   -1.1816   -0.3419    0.7769 S   0  0  0  0  0  0  0  0  0  0  0  0
   -2.8839   -0.8844    0.6811 C   0  0  0  0  0  0  0  0  0  0  0  0
   -3.4056   -1.6824    1.6273 N   0  0  0  0  0  0  0  0  0  0  0  0
   -4.7323   -1.9622    1.6281 C   0  0  0  0  0  0  0  0  0  0  0  0
   -5.3616   -1.8712    0.3915 C   0  0  0  0  0  0  0  0  0  0  0  0
   -4.8166   -0.9911   -0.5358 C   0  0  0  0  0  0  0  0  0  0  0  0
   -5.3920   -0.7746   -1.6448 O   0  0  0  0  0  0  0  0  0  0  0  0
   -3.6140   -0.4043   -0.3546 N   0  0  0  0  0  0  0  0  0  0  0  0
   -3.2506    0.8230   -0.9985 C   0  0  0  0  0  0  0  0  0  0  0  0
   -3.8515    1.0744   -2.2273 C   0  0  0  0  0  0  0  0  0  0  0  0
   -3.8352    2.3640   -2.7445 C   0  0  0  0  0  0  0  0  0  0  0  0
   -3.6615    3.4468   -1.9004 C   0  0  0  0  0  0  0  0  0  0  0  0
   -3.2997    3.2158   -0.6012 C   0  0  0  0  0  0  0  0  0  0  0  0
   -3.1627    1.9280   -0.1589 C   0  0  0  0  0  0  0  0  0  0  0  0
   -7.1057   -2.0763    0.7964 S   0  0  0  0  0  0  0  0  0  0  0  0
   -6.8819   -2.5290    2.5539 C   0  0  0  0  0  0  0  0  0  0  0  0
   -5.4177   -2.9518    2.4962 C   0  0  0  0  0  0  0  0  0  0  0  0
    1.2344    1.3272    0.4485 N   0  0  0  0  0  0  0  0  0  0  0  0
    2.6224    1.3471    0.7234 C   0  0  0  0  0  0  0  0  0  0  0  0
    3.5133    2.0358   -0.0595 C   0  0  0  0  0  0  0  0  0  0  0  0
    4.7975    1.5289   -0.2121 C   0  0  0  0  0  0  0  0  0  0  0  0
    5.3012    0.5373    0.6205 C   0  0  0  0  0  0  0  0  0  0  0  0
    6.4312   -0.2267    0.1004 C   0  0  0  0  0  0  0  0  0  0  0  0
    6.6865   -0.3121   -1.2624 C   0  0  0  0  0  0  0  0  0  0  0  0
    7.8799   -0.7711   -1.7571 C   0  0  0  0  0  0  0  0  0  0  0  0
    8.7709   -1.3189   -0.8431 C   0  0  0  0  0  0  0  0  0  0  0  0
    8.3529   -1.5585    0.4474 C   0  0  0  0  0  0  0  0  0  0  0  0
    7.1270   -1.1018    0.9156 C   0  0  0  0  0  0  0  0  0  0  0  0
    4.3718   -0.0648    1.4595 C   0  0  0  0  0  0  0  0  0  0  0  0
    3.1182    0.4329    1.5914 N   0  0  0  0  0  0  0  0  0  0  0  0
  1  2  2  0
  2  3  1  0
  3  4  1  0
  4  5  1  0
  5  6  2  0
  6  7  1  0
  7  8  2  0
  8  9  1  0
  9 10  2  0
  9 11  1  0
 11 12  1  0
 12 13  2  0
 13 14  1  0
 14 15  2  0
 15 16  1  0
 16 17  2  0
  8 18  1  0
 18 19  1  0
 19 20  1  0
  2 21  1  0
 21 22  1  0
 22 23  2  0
 23 24  1  0
 24 25  2  0
 25 26  1  0
 26 27  2  0
 27 28  1  0
 28 29  2  0
 29 30  1  0
 30 31  2  0
 25 32  1  0
 32 33  2  0
 11  5  1  0
 17 12  1  0
 33 22  1  0
 20  7  1  0
 31 26  1  0
M  END
>  <zinc_id>  (1) 
ZINC000095583412

>  <smiles>  (1) 
O=C(CSc1nc2c(c(=O)n1-c1ccccc1)SCC2)Nc1ccc(-c2ccccc2)cn1

$$$$
