REMARK SMILES C[C@H]1CN(CC(=O)Nc2ccc3c(c2)Cc2cccc(-c4cc(=O)cc(N5CCOCC5)o4)c2S3)C[C@@H](C)O1
REMARK SMILES IDX 9 1 10 2 11 3 12 4 13 5 14 6 15 7 16 8 17 9 18 10 19 11
REMARK SMILES IDX 20 12 34 13 35 14 8 15 6 16 7 17 5 18 4 19 38 20 37 21 36 22
REMARK SMILES IDX 39 23 2 24 3 25 1 26 21 27 22 28 33 29 23 30 26 31 24 32
REMARK SMILES IDX 25 33 27 34 28 35 32 36 29 37 31 38 30 39
REMARK H PARENT
REMARK Flexibility Score: inf
ROOT
ATOM      1  C   UNL     1       2.788   0.622  -1.370  1.00  0.00     0.041 A 
ATOM      2  C   UNL     1       1.807   0.612  -2.355  1.00  0.00    -0.037 A 
ATOM      3  C   UNL     1       0.485   0.338  -2.025  1.00  0.00    -0.046 A 
ATOM      4  C   UNL     1       0.154   0.116  -0.692  1.00  0.00     0.016 A 
ATOM      5  C   UNL     1       1.130  -0.003   0.291  1.00  0.00    -0.028 A 
ATOM      6  C   UNL     1       2.384   0.489  -0.048  1.00  0.00    -0.034 A 
ATOM      7  C   UNL     1       0.952  -1.039   1.347  1.00  0.00    -0.000 C 
ATOM      8  C   UNL     1      -0.293  -0.821   2.135  1.00  0.00    -0.029 A 
ATOM      9  C   UNL     1      -0.384  -1.520   3.333  1.00  0.00    -0.058 A 
ATOM     10  C   UNL     1      -1.397  -1.118   4.184  1.00  0.00    -0.061 A 
ATOM     11  C   UNL     1      -2.506  -0.474   3.647  1.00  0.00    -0.050 A 
ATOM     12  C   UNL     1      -2.656  -0.275   2.282  1.00  0.00     0.032 A 
ATOM     13  C   UNL     1      -1.514  -0.538   1.536  1.00  0.00     0.027 A 
ATOM     14  S   UNL     1      -1.556  -0.066  -0.171  1.00  0.00    -0.089 SA
ENDROOT
BRANCH   1  15
ATOM     15  N   UNL     1       4.054   1.206  -1.663  1.00  0.00    -0.325 N 
ATOM     16  C   UNL     1       4.929   0.724  -2.669  1.00  0.00     0.238 C 
ATOM     17  O   UNL     1       4.463  -0.069  -3.532  1.00  0.00    -0.273 OA
BRANCH  16  18
ATOM     18  C   UNL     1       6.292   1.319  -2.847  1.00  0.00     0.078 C 
BRANCH  18  19
ATOM     19  N   UNL     1       7.107   0.978  -1.784  1.00  0.00    -0.289 NA
ATOM     20  C   UNL     1       7.147   0.644   1.704  1.00  0.00    -0.037 C 
ATOM     21  C   UNL     1       8.101   0.775   0.342  1.00  0.00     0.068 C 
ATOM     22  C   UNL     1       6.877   1.550  -0.498  1.00  0.00     0.025 C 
ATOM     23  O   UNL     1       7.641  -0.601  -0.172  1.00  0.00    -0.373 OA
ATOM     24  C   UNL     1       8.742  -0.788  -1.233  1.00  0.00     0.068 C 
ATOM     25  C   UNL     1       8.470   0.701  -1.945  1.00  0.00     0.025 C 
ATOM     26  C   UNL     1       7.686  -1.524  -2.298  1.00  0.00    -0.037 C 
ENDBRANCH  18  19
ENDBRANCH  16  18
ENDBRANCH   1  15
BRANCH  12  27
ATOM     27  C   UNL     1      -3.993  -0.406   1.690  1.00  0.00     0.141 A 
ATOM     28  C   UNL     1      -5.083  -0.648   2.520  1.00  0.00     0.029 A 
ATOM     29  O   UNL     1      -4.269  -0.141   0.449  1.00  0.00    -0.440 OA
ATOM     30  C   UNL     1      -6.144  -1.367   1.982  1.00  0.00     0.187 A 
ATOM     31  C   UNL     1      -5.449  -0.385  -0.097  1.00  0.00     0.200 A 
ATOM     32  O   UNL     1      -6.902  -2.093   2.664  1.00  0.00    -0.290 OA
ATOM     33  C   UNL     1      -6.226  -1.306   0.595  1.00  0.00     0.046 A 
BRANCH  31  34
ATOM     34  N   UNL     1      -5.972   0.396  -1.178  1.00  0.00    -0.338 N 
ATOM     35  C   UNL     1      -5.963   1.848  -1.005  1.00  0.00     0.044 C 
ATOM     36  C   UNL     1      -7.186  -0.132  -1.799  1.00  0.00     0.044 C 
ATOM     37  C   UNL     1      -7.388   2.199  -0.591  1.00  0.00     0.064 C 
ATOM     38  C   UNL     1      -8.312   0.094  -0.797  1.00  0.00     0.064 C 
ATOM     39  O   UNL     1      -8.014   1.159   0.067  1.00  0.00    -0.378 OA
ENDBRANCH  31  34
ENDBRANCH  12  27
TORSDOF 5

