REMARK SMILES O=C(O)c1ccc(-n2nc(-c3ccccc3O)nc2-c2ccccc2O)cc1
REMARK SMILES IDX 4 1 5 2 6 3 7 4 27 5 28 6 2 7 1 8 3 9 8 10 9 11 19 12 10 13
REMARK SMILES IDX 18 14 20 15 21 16 25 17 22 18 24 19 26 20 23 21 11 22 12 23
REMARK SMILES IDX 16 24 13 25 15 26 17 27 14 28
REMARK H PARENT
REMARK Flexibility Score: inf
ROOT
ATOM      1  C   UNL     1       4.169   0.416  -0.409  1.00  0.00     0.060 A 
ATOM      2  C   UNL     1       3.432  -0.071  -1.483  1.00  0.00    -0.046 A 
ATOM      3  C   UNL     1       2.221  -0.715  -1.260  1.00  0.00    -0.035 A 
ATOM      4  C   UNL     1       1.645  -0.778   0.005  1.00  0.00     0.067 A 
ATOM      5  C   UNL     1       2.560  -0.641   1.044  1.00  0.00    -0.035 A 
ATOM      6  C   UNL     1       3.839  -0.140   0.822  1.00  0.00    -0.046 A 
ENDROOT
BRANCH   1   7
ATOM      7  C   UNL     1       4.899   1.686  -0.516  1.00  0.00     0.335 C 
ATOM      8  O   UNL     1       5.873   1.723  -1.301  1.00  0.00    -0.246 OA
ATOM      9  O   UNL     1       4.449   2.866   0.035  1.00  0.00    -0.478 OA
ENDBRANCH   1   7
BRANCH   4  10
ATOM     10  N   UNL     1       0.259  -0.470   0.211  1.00  0.00    -0.212 N 
ATOM     11  N   UNL     1      -0.197   0.755   0.471  1.00  0.00    -0.145 NA
ATOM     12  C   UNL     1      -0.830  -1.154  -0.172  1.00  0.00     0.167 A 
ATOM     13  C   UNL     1      -1.387   0.938  -0.150  1.00  0.00     0.185 A 
ATOM     14  N   UNL     1      -1.860  -0.293  -0.355  1.00  0.00    -0.206 NA
BRANCH  12  15
ATOM     15  C   UNL     1      -0.835  -2.615  -0.274  1.00  0.00     0.061 A 
ATOM     16  C   UNL     1      -1.371  -3.267  -1.378  1.00  0.00    -0.047 A 
ATOM     17  C   UNL     1      -0.712  -3.394   0.869  1.00  0.00     0.126 A 
ATOM     18  C   UNL     1      -2.153  -4.408  -1.238  1.00  0.00    -0.061 A 
ATOM     19  C   UNL     1      -1.439  -4.568   1.012  1.00  0.00    -0.019 A 
ATOM     20  O   UNL     1      -0.290  -2.787   2.036  1.00  0.00    -0.507 OA
ATOM     21  C   UNL     1      -2.247  -5.037  -0.011  1.00  0.00    -0.059 A 
ENDBRANCH  12  15
BRANCH  13  22
ATOM     22  C   UNL     1      -2.051   2.238  -0.288  1.00  0.00     0.063 A 
ATOM     23  C   UNL     1      -1.307   3.385  -0.139  1.00  0.00    -0.047 A 
ATOM     24  C   UNL     1      -3.401   2.370  -0.456  1.00  0.00     0.126 A 
ATOM     25  C   UNL     1      -1.927   4.605   0.078  1.00  0.00    -0.061 A 
ATOM     26  C   UNL     1      -3.994   3.503   0.086  1.00  0.00    -0.019 A 
ATOM     27  O   UNL     1      -4.116   1.292  -0.933  1.00  0.00    -0.507 OA
ATOM     28  C   UNL     1      -3.229   4.560   0.564  1.00  0.00    -0.059 A 
ENDBRANCH  13  22
ENDBRANCH   4  10
TORSDOF 4

