
     RDKit          3D

 23 25  0  0  0  0  0  0  0  0999 V2000
    5.8091   -0.4534   -0.8481 C   0  0  0  0  0  0  0  0  0  0  0  0
    4.9208   -0.8958    0.3077 C   0  0  0  0  0  0  0  0  0  0  0  0
    3.5968   -1.3578   -0.2882 C   0  0  0  0  0  0  0  0  0  0  0  0
    2.7531   -2.0605    0.7382 C   0  0  0  0  0  0  0  0  0  0  0  0
    1.4511   -1.3818    1.0219 C   0  0  0  0  0  0  0  0  0  0  0  0
    0.3631   -1.8081    0.0848 C   0  0  0  0  0  0  0  0  0  0  0  0
    0.3298   -2.7777   -0.7014 O   0  0  0  0  0  0  0  0  0  0  0  0
   -0.5986   -0.7488    0.1745 N   0  0  0  0  0  0  0  0  0  0  0  0
   -2.0028   -0.8968   -0.0699 C   0  0  0  0  0  0  0  0  0  0  0  0
   -2.3828   -0.8447   -1.4060 C   0  0  0  0  0  0  0  0  0  0  0  0
   -3.6544   -1.2304   -1.8019 C   0  0  0  0  0  0  0  0  0  0  0  0
   -4.5181   -1.8239   -0.9182 C   0  0  0  0  0  0  0  0  0  0  0  0
   -4.1257   -1.9115    0.4047 C   0  0  0  0  0  0  0  0  0  0  0  0
   -2.8098   -1.6855    0.7413 C   0  0  0  0  0  0  0  0  0  0  0  0
    0.1009    0.4196    0.5369 N   0  0  0  0  0  0  0  0  0  0  0  0
   -0.4444    1.7411    0.4643 C   0  0  0  0  0  0  0  0  0  0  0  0
   -0.0289    2.7674    1.2848 C   0  0  0  0  0  0  0  0  0  0  0  0
   -0.1133    4.0853    0.8534 C   0  0  0  0  0  0  0  0  0  0  0  0
   -0.3854    4.3599   -0.4818 C   0  0  0  0  0  0  0  0  0  0  0  0
   -1.0311    3.3918   -1.2162 C   0  0  0  0  0  0  0  0  0  0  0  0
   -1.0406    2.1039   -0.7352 C   0  0  0  0  0  0  0  0  0  0  0  0
    1.4821    0.0842    0.7260 C   0  0  0  0  0  0  0  0  0  0  0  0
    2.3290    0.9233    1.1283 O   0  0  0  0  0  0  0  0  0  0  0  0
  1  2  1  0
  2  3  1  0
  3  4  1  0
  4  5  1  0
  5  6  1  0
  6  7  2  0
  6  8  1  0
  8  9  1  0
  9 10  2  0
 10 11  1  0
 11 12  2  0
 12 13  1  0
 13 14  2  0
  8 15  1  0
 15 16  1  0
 16 17  2  0
 17 18  1  0
 18 19  2  0
 19 20  1  0
 20 21  2  0
 15 22  1  0
 22 23  2  0
 22  5  1  0
 14  9  1  0
 21 16  1  0
M  END
>  <zinc_id>  (1) 
ZINC000100004227

>  <smiles>  (1) 
CCCCC1C(=O)N(c2ccccc2)N(c2ccccc2)C1=O

$$$$
