
     RDKit          3D

 46 48  0  0  0  0  0  0  0  0999 V2000
   -3.2356    6.6286   -1.1957 C   0  0  0  0  0  0  0  0  0  0  0  0
   -4.1037    5.7694   -2.0512 C   0  0  0  0  0  0  0  0  0  0  0  0
   -4.1970    4.3995   -1.4014 C   0  0  0  0  0  0  0  0  0  0  0  0
   -3.7780    3.2888   -2.3397 C   0  0  0  0  0  0  0  0  0  0  0  0
   -2.1400    3.1649   -2.1204 C   0  0  1  0  0  0  0  0  0  0  0  0
   -2.2883    1.8845   -1.1942 N   0  0  0  0  0  0  0  0  0  0  0  0
   -0.9948    1.2869   -1.0012 C   0  0  0  0  0  0  0  0  0  0  0  0
   -0.4019    0.9209   -2.0187 O   0  0  0  0  0  0  0  0  0  0  0  0
   -1.1221    0.2116    0.2109 C   0  0  1  0  0  0  0  0  0  0  0  0
   -1.5019   -1.0414   -0.8117 C   0  0  0  0  0  0  0  0  0  0  0  0
   -2.5187   -1.8356   -0.1103 C   0  0  0  0  0  0  0  0  0  0  0  0
   -2.4522   -2.8856    0.7650 C   0  0  0  0  0  0  0  0  0  0  0  0
   -3.6949   -3.0311    1.2892 N   0  0  0  0  0  0  0  0  0  0  0  0
   -4.0699   -3.9530    2.2957 C   0  0  0  0  0  0  0  0  0  0  0  0
   -4.1032   -5.2029    2.1247 O   0  0  0  0  0  0  0  0  0  0  0  0
   -4.5064   -3.4797    3.5221 O   0  0  0  0  0  0  0  0  0  0  0  0
   -5.4659   -4.1666    4.3022 C   0  0  0  0  0  0  0  0  0  0  0  0
   -4.5840   -2.3049    0.5690 C   0  0  0  0  0  0  0  0  0  0  0  0
   -5.8656   -1.8229    0.8121 C   0  0  0  0  0  0  0  0  0  0  0  0
   -6.3175   -0.7914   -0.0039 C   0  0  0  0  0  0  0  0  0  0  0  0
   -5.8137   -0.6633   -1.2930 C   0  0  0  0  0  0  0  0  0  0  0  0
   -4.5625   -1.2205   -1.5315 C   0  0  0  0  0  0  0  0  0  0  0  0
   -3.8501   -1.8422   -0.5165 C   0  0  0  0  0  0  0  0  0  0  0  0
    0.3992   -0.2003    0.1616 N   0  0  0  0  0  0  0  0  0  0  0  0
    1.3300    0.7291    0.7444 C   0  0  0  0  0  0  0  0  0  0  0  0
    1.2391    1.8307    0.1218 O   0  0  0  0  0  0  0  0  0  0  0  0
    2.6522   -0.1379    0.3346 C   0  0  2  0  0  0  0  0  0  0  0  0
    2.4986   -1.1328    1.6357 C   0  0  0  0  0  0  0  0  0  0  0  0
    2.5691   -0.5158    2.9042 C   0  0  0  0  0  0  0  0  0  0  0  0
    3.8880   -0.8280    3.6139 C   0  0  0  0  0  0  0  0  0  0  0  0
    1.5631   -1.2800    3.7842 C   0  0  0  0  0  0  0  0  0  0  0  0
    2.2766    0.9024    3.1894 C   0  0  0  0  0  0  0  0  0  0  0  0
    3.7449    0.7753    1.0457 N   0  0  0  0  0  0  0  0  0  0  0  0
    4.8494    1.0778    0.1783 C   0  0  0  0  0  0  0  0  0  0  0  0
    4.4377    1.8143   -0.7720 O   0  0  0  0  0  0  0  0  0  0  0  0
    5.9733    0.2764   -0.1250 N   0  0  0  0  0  0  0  0  0  0  0  0
    6.0901   -0.2380   -1.5927 C   0  0  2  0  0  0  0  0  0  0  0  0
    5.5481   -1.7638   -1.2243 C   0  0  0  0  0  0  0  0  0  0  0  0
    7.6800   -0.7002   -1.5865 C   0  0  0  0  0  0  0  0  0  0  0  0
    8.1435    0.6958   -1.2118 C   0  0  0  0  0  0  0  0  0  0  0  0
    8.3858    0.5554    0.1868 C   0  0  0  0  0  0  0  0  0  0  0  0
    7.0267    0.0686    1.0019 C   0  0  2  0  0  0  0  0  0  0  0  0
    7.2770   -1.5530    0.7366 C   0  0  0  0  0  0  0  0  0  0  0  0
   -1.9497    2.2639   -3.4567 C   0  0  0  0  0  0  0  0  0  0  0  0
   -1.2355    2.8130   -4.3226 O   0  0  0  0  0  0  0  0  0  0  0  0
   -2.8191    1.2333   -3.6488 O   0  0  0  0  0  0  0  0  0  0  0  0
  1  2  1  0
  2  3  1  0
  3  4  1  0
  5  4  1  6
  5  6  1  0
  6  7  1  0
  7  8  2  0
  9  7  1  6
  9 10  1  0
 10 11  1  0
 11 12  2  0
 12 13  1  0
 13 14  1  0
 14 15  2  0
 14 16  1  0
 16 17  1  0
 13 18  1  0
 18 19  2  0
 19 20  1  0
 20 21  2  0
 21 22  1  0
 22 23  2  0
  9 24  1  0
 24 25  1  0
 25 26  2  0
 27 25  1  1
 27 28  1  0
 28 29  1  0
 29 30  1  0
 29 31  1  0
 29 32  1  0
 27 33  1  0
 33 34  1  0
 34 35  2  0
 34 36  1  0
 36 37  1  0
 37 38  1  1
 37 39  1  0
 39 40  1  0
 40 41  1  0
 41 42  1  0
 42 43  1  6
  5 44  1  0
 44 45  2  0
 44 46  1  0
 23 11  1  0
 42 36  1  0
 23 18  1  0
M  END
>  <zinc_id>  (1) 
ZINC000014276855

>  <smiles>  (1) 
CCCC[C@@H](NC(=O)[C@@H](Cc1cn(C(=O)OC)c2ccccc12)NC(=O)[C@H](CC(C)(C)C)NC(=O)N1[C@@H](C)CCC[C@H]1C)C(=O)O

$$$$
