
     RDKit          3D

 29 31  0  0  0  0  0  0  0  0999 V2000
    4.6790   -1.7390    1.9605 C   0  0  0  0  0  0  0  0  0  0  0  0
    4.3835   -2.0260    0.6420 O   0  0  0  0  0  0  0  0  0  0  0  0
    3.3647   -1.4001   -0.0722 C   0  0  0  0  0  0  0  0  0  0  0  0
    2.2783   -2.1686   -0.3847 C   0  0  0  0  0  0  0  0  0  0  0  0
    1.1612   -1.5155   -0.8932 C   0  0  0  0  0  0  0  0  0  0  0  0
    1.0283   -0.1428   -0.7126 C   0  0  0  0  0  0  0  0  0  0  0  0
    1.9971    0.6235   -0.0961 C   0  0  0  0  0  0  0  0  0  0  0  0
    1.7413    1.4648    0.9944 O   0  0  0  0  0  0  0  0  0  0  0  0
    1.5251    0.9406    2.2765 C   0  0  0  0  0  0  0  0  0  0  0  0
    3.2244   -0.0325    0.0060 C   0  0  0  0  0  0  0  0  0  0  0  0
    4.3625    0.7631    0.1655 O   0  0  0  0  0  0  0  0  0  0  0  0
    4.8244    1.4807   -0.9649 C   0  0  0  0  0  0  0  0  0  0  0  0
   -0.2598    0.5182   -0.5165 C   0  0  0  0  0  0  0  0  0  0  0  0
    0.1022    1.8193   -0.8248 C   0  0  0  0  0  0  0  0  0  0  0  0
   -0.6932    2.9112   -0.4859 C   0  0  0  0  0  0  0  0  0  0  0  0
   -1.9089    2.9662    0.1855 C   0  0  0  0  0  0  0  0  0  0  0  0
   -2.4765    4.2355    0.2499 O   0  0  0  0  0  0  0  0  0  0  0  0
   -2.1039    5.0226    1.3792 C   0  0  0  0  0  0  0  0  0  0  0  0
   -2.6655    1.8923    0.6451 C   0  0  0  0  0  0  0  0  0  0  0  0
   -3.8304    2.2874    0.9531 O   0  0  0  0  0  0  0  0  0  0  0  0
   -2.4714    0.5237    0.4761 C   0  0  0  0  0  0  0  0  0  0  0  0
   -1.5575    0.0132   -0.4405 C   0  0  0  0  0  0  0  0  0  0  0  0
   -1.6071   -1.5540    0.0536 C   0  0  1  0  0  0  0  0  0  0  0  0
   -3.1689   -1.6904   -0.2868 N   0  0  0  0  0  0  0  0  0  0  0  0
   -3.4718   -3.0939   -0.2778 C   0  0  0  0  0  0  0  0  0  0  0  0
   -4.8733   -3.4978   -0.6176 C   0  0  0  0  0  0  0  0  0  0  0  0
   -2.6044   -3.9709   -0.5799 O   0  0  0  0  0  0  0  0  0  0  0  0
   -1.1945   -2.0691   -1.4874 C   0  0  0  0  0  0  0  0  0  0  0  0
    0.2150   -2.5617   -1.3465 C   0  0  0  0  0  0  0  0  0  0  0  0
  1  2  1  0
  2  3  1  0
  3  4  2  0
  4  5  1  0
  5  6  2  0
  6  7  1  0
  7  8  1  0
  8  9  1  0
  7 10  2  0
 10 11  1  0
 11 12  1  0
  6 13  1  0
 13 14  2  0
 14 15  1  0
 15 16  2  0
 16 17  1  0
 17 18  1  0
 16 19  1  0
 19 20  2  0
 19 21  1  0
 21 22  2  0
 22 23  1  0
 23 24  1  6
 24 25  1  0
 25 26  1  0
 25 27  2  0
 23 28  1  0
 28 29  1  0
 10  3  1  0
 22 13  1  0
 29  5  1  0
M  END
>  <zinc_id>  (1) 
ZINC000000621853

>  <smiles>  (1) 
COc1cc2c(c(OC)c1OC)-c1ccc(OC)c(=O)cc1[C@@H](NC(C)=O)CC2

$$$$
