
     RDKit          3D

  6  5  0  0  0  0  0  0  0  0999 V2000
    2.0185    0.7458   -0.5405 C   0  0  0  0  0  0  0  0  0  0  0  0
    1.4985   -0.4911    0.1183 C   0  0  0  0  0  0  0  0  0  0  0  0
    0.1956   -0.9870   -0.4433 C   0  0  0  0  0  0  0  0  0  0  0  0
   -0.9296   -0.0448   -0.1994 C   0  0  0  0  0  0  0  0  0  0  0  0
   -2.0962   -0.4960   -0.3061 O   0  0  0  0  0  0  0  0  0  0  0  0
   -0.6867    1.2731   -0.5256 O   0  0  0  0  0  0  0  0  0  0  0  0
  1  2  1  0
  2  3  1  0
  3  4  1  0
  4  5  2  0
  4  6  1  0
M  END
>  <zinc_id>  (1) 
ZINC000000895132

>  <smiles>  (1) 
CCCC(=O)O

$$$$
