
     RDKit          3D

 23 25  0  0  0  0  0  0  0  0999 V2000
   -2.3877    1.1195    2.1027 N   0  0  0  0  0  0  0  0  0  0  0  0
   -3.1019    0.1494    0.8854 S   0  0  0  0  0  0  0  0  0  0  0  0
   -4.3498    0.6374    0.2888 O   0  0  0  0  0  0  0  0  0  0  0  0
   -3.7105   -0.8939    1.8288 O   0  0  0  0  0  0  0  0  0  0  0  0
   -2.0563   -0.8360   -0.0428 C   0  0  0  0  0  0  0  0  0  0  0  0
   -2.1745   -2.2120   -0.2303 C   0  0  0  0  0  0  0  0  0  0  0  0
   -1.1460   -2.9699   -0.7774 C   0  0  0  0  0  0  0  0  0  0  0  0
    0.1494   -2.4831   -0.6497 C   0  0  0  0  0  0  0  0  0  0  0  0
    0.3357   -1.1437   -0.3754 C   0  0  0  0  0  0  0  0  0  0  0  0
    1.5966   -0.5599   -0.4311 C   0  0  0  0  0  0  0  0  0  0  0  0
    2.5999   -1.3158    0.0719 N   0  0  0  0  0  0  0  0  0  0  0  0
    3.7006   -0.6972    0.5660 C   0  0  0  0  0  0  0  0  0  0  0  0
    4.4517   -1.2185    1.4268 O   0  0  0  0  0  0  0  0  0  0  0  0
    3.8529    0.6639    0.3409 C   0  0  0  0  0  0  0  0  0  0  0  0
    4.8450    1.2712    0.8328 O   0  0  0  0  0  0  0  0  0  0  0  0
    2.8403    1.3812   -0.1926 N   0  0  0  0  0  0  0  0  0  0  0  0
    1.6350    0.8218   -0.4316 C   0  0  0  0  0  0  0  0  0  0  0  0
    0.5197    1.6023   -0.7133 C   0  0  0  0  0  0  0  0  0  0  0  0
   -0.7186    1.0492   -0.4208 C   0  0  0  0  0  0  0  0  0  0  0  0
   -1.9515    1.6790   -0.8229 N   0  0  0  0  0  0  0  0  0  0  0  0
   -1.8850    2.9410   -0.7440 O   0  0  0  0  0  0  0  0  0  0  0  0
   -2.2481    1.3516   -2.1497 O   0  0  0  0  0  0  0  0  0  0  0  0
   -0.7969   -0.3378   -0.3625 C   0  0  0  0  0  0  0  0  0  0  0  0
  1  2  1  0
  2  3  2  0
  2  4  2  0
  2  5  1  0
  5  6  2  0
  6  7  1  0
  7  8  2  0
  8  9  1  0
  9 10  2  0
 10 11  1  0
 11 12  1  0
 12 13  2  0
 12 14  1  0
 14 15  2  0
 14 16  1  0
 16 17  1  0
 17 18  2  0
 18 19  1  0
 19 20  1  0
 20 21  2  0
 20 22  1  0
 19 23  2  0
 23  5  1  0
 23  9  1  0
 17 10  1  0
M  CHG  2  20   1  22  -1
M  END
>  <zinc_id>  (1) 
ZINC000008585017

>  <smiles>  (1) 
NS(=O)(=O)c1cccc2c1c([N+](=O)[O-])cc1[nH]c(=O)c(=O)[nH]c12

$$$$
