
     RDKit          3D

 27 29  0  0  0  0  0  0  0  0999 V2000
   -4.2058    3.0216    0.9956 C   0  0  0  0  0  0  0  0  0  0  0  0
   -3.3764    2.6419    0.4950 C   0  0  0  0  0  0  0  0  0  0  0  0
   -2.8915    3.6502   -0.5427 C   0  0  0  0  0  0  0  0  0  0  0  0
   -4.1136    1.5213   -0.5011 C   0  0  2  0  0  0  0  0  0  0  0  0
   -4.0504    0.3521    0.6922 C   0  0  0  0  0  0  0  0  0  0  0  0
   -5.1905   -0.4032    0.4882 O   0  0  0  0  0  0  0  0  0  0  0  0
   -2.7225    1.1066   -1.1602 N   0  0  0  0  0  0  0  0  0  0  0  0
   -1.6956    0.6622   -0.3106 C   0  0  0  0  0  0  0  0  0  0  0  0
   -1.7480   -0.6570    0.0019 N   0  0  0  0  0  0  0  0  0  0  0  0
   -0.7039   -1.3912    0.3801 C   0  0  0  0  0  0  0  0  0  0  0  0
    0.5529   -0.8444    0.1407 C   0  0  0  0  0  0  0  0  0  0  0  0
    1.4063   -1.8767    0.2877 N   0  0  0  0  0  0  0  0  0  0  0  0
    0.7083   -3.0122    0.5122 C   0  0  0  0  0  0  0  0  0  0  0  0
   -0.5967   -2.7359    0.5359 N   0  0  0  0  0  0  0  0  0  0  0  0
   -1.6701   -3.6683    0.2407 C   0  0  0  0  0  0  0  0  0  0  0  0
   -2.5395   -3.9545    1.4274 C   0  0  0  0  0  0  0  0  0  0  0  0
   -1.2260   -4.8869   -0.5008 C   0  0  0  0  0  0  0  0  0  0  0  0
    0.6780    0.4283   -0.4072 C   0  0  0  0  0  0  0  0  0  0  0  0
    1.8095    0.6145   -1.2683 N   0  0  0  0  0  0  0  0  0  0  0  0
    3.1149    0.8812   -0.8481 C   0  0  0  0  0  0  0  0  0  0  0  0
    3.9343    1.6096   -1.7040 C   0  0  0  0  0  0  0  0  0  0  0  0
    4.9791    2.3497   -1.1606 C   0  0  0  0  0  0  0  0  0  0  0  0
    5.3782    2.0877    0.1458 C   0  0  0  0  0  0  0  0  0  0  0  0
    4.9395    0.9090    0.7023 C   0  0  0  0  0  0  0  0  0  0  0  0
    5.9607    0.0472    1.8534 Cl  0  0  0  0  0  0  0  0  0  0  0  0
    3.7105    0.4020    0.2956 C   0  0  0  0  0  0  0  0  0  0  0  0
   -0.4418    1.1453   -0.4861 N   0  0  0  0  0  0  0  0  0  0  0  0
  1  2  1  0
  2  3  1  0
  4  2  1  1
  4  5  1  0
  5  6  1  0
  4  7  1  0
  7  8  1  0
  8  9  2  0
  9 10  1  0
 10 11  2  0
 11 12  1  0
 12 13  2  0
 13 14  1  0
 14 15  1  0
 15 16  1  0
 15 17  1  0
 11 18  1  0
 18 19  1  0
 19 20  1  0
 20 21  2  0
 21 22  1  0
 22 23  2  0
 23 24  1  0
 24 25  1  0
 24 26  2  0
 18 27  2  0
 27  8  1  0
 14 10  1  0
 26 20  1  0
M  END
>  <zinc_id>  (1) 
ZINC000000582575

>  <smiles>  (1) 
CC(C)[C@H](CO)Nc1nc(Nc2cccc(Cl)c2)c2ncn(C(C)C)c2n1

$$$$
