REMARK SMILES Cc1c(C)c2c(c(C)c1O)CC[C@@](C)(CCC[C@H](C)CCC[C@H](C)CCCC(C)C)O2
REMARK SMILES IDX 21 1 20 2 18 3 19 4 17 5 16 6 15 7 13 8 1 9 2 10 3 11 9 12
REMARK SMILES IDX 4 13 5 14 7 15 10 16 6 17 31 18 8 19 11 20 12 21 14 22 22 23
REMARK SMILES IDX 23 24 24 25 25 26 26 27 27 28 28 29 29 30 30 31
REMARK H PARENT
REMARK Flexibility Score: inf
ROOT
ATOM      1  C   UNL     1       3.029   0.222  -0.409  1.00  0.00    -0.053 C 
ENDROOT
BRANCH   1   2
ATOM      2  C   UNL     1       2.081   0.886  -1.357  1.00  0.00    -0.051 C 
BRANCH   2   3
ATOM      3  C   UNL     1       0.686  -0.003  -1.303  1.00  0.00    -0.044 C 
ATOM      4  C   UNL     1       1.506  -1.439  -1.397  1.00  0.00    -0.063 C 
BRANCH   3   5
ATOM      5  C   UNL     1       0.688  -0.034   0.354  1.00  0.00    -0.051 C 
BRANCH   5   6
ATOM      6  C   UNL     1       0.213   1.389   0.630  1.00  0.00    -0.049 C 
BRANCH   6   7
ATOM      7  C   UNL     1      -0.788   1.369   1.750  1.00  0.00    -0.013 C 
BRANCH   7   8
ATOM      8  C   UNL     1      -2.037   0.600   1.423  1.00  0.00     0.107 C 
ATOM      9  C   UNL     1      -7.402   1.468  -0.731  1.00  0.00    -0.036 C 
ATOM     10  C   UNL     1      -6.272   0.674  -0.510  1.00  0.00    -0.002 A 
ATOM     11  C   UNL     1      -4.967   1.134  -0.649  1.00  0.00    -0.002 A 
ATOM     12  C   UNL     1      -6.430  -0.509   0.201  1.00  0.00     0.122 A 
ATOM     13  C   UNL     1      -4.809   2.574  -1.011  1.00  0.00    -0.036 C 
ATOM     14  C   UNL     1      -3.889   0.502  -0.090  1.00  0.00     0.127 A 
ATOM     15  C   UNL     1      -5.345  -1.292   0.554  1.00  0.00    -0.002 A 
ATOM     16  O   UNL     1      -7.693  -0.881   0.670  1.00  0.00    -0.507 OA
ATOM     17  C   UNL     1      -4.062  -0.810   0.322  1.00  0.00     0.001 A 
ATOM     18  O   UNL     1      -2.710   1.141   0.286  1.00  0.00    -0.487 OA
ATOM     19  C   UNL     1      -5.535  -2.571   1.277  1.00  0.00    -0.036 C 
ATOM     20  C   UNL     1      -2.857  -1.619   0.571  1.00  0.00    -0.020 C 
ATOM     21  C   UNL     1      -1.746  -0.875   1.245  1.00  0.00    -0.009 C 
ATOM     22  C   UNL     1      -2.942   0.696   2.647  1.00  0.00    -0.025 C 
ENDBRANCH   7   8
ENDBRANCH   6   7
ENDBRANCH   5   6
ENDBRANCH   3   5
ENDBRANCH   2   3
ENDBRANCH   1   2
BRANCH   1  23
ATOM     23  C   UNL     1       4.412   0.646  -0.752  1.00  0.00    -0.051 C 
BRANCH  23  24
ATOM     24  C   UNL     1       4.827  -0.201  -2.113  1.00  0.00    -0.044 C 
ATOM     25  C   UNL     1       5.566  -1.389  -1.226  1.00  0.00    -0.063 C 
BRANCH  24  26
ATOM     26  C   UNL     1       6.244   0.636  -2.292  1.00  0.00    -0.051 C 
BRANCH  26  27
ATOM     27  C   UNL     1       6.856   0.729  -0.942  1.00  0.00    -0.053 C 
BRANCH  27  28
ATOM     28  C   UNL     1       7.997  -0.192  -0.679  1.00  0.00    -0.051 C 
BRANCH  28  29
ATOM     29  C   UNL     1       8.553   0.089   0.698  1.00  0.00    -0.047 C 
ATOM     30  C   UNL     1       9.345  -1.153   1.092  1.00  0.00    -0.063 C 
ATOM     31  C   UNL     1       7.478   0.255   1.742  1.00  0.00    -0.063 C 
ENDBRANCH  28  29
ENDBRANCH  27  28
ENDBRANCH  26  27
ENDBRANCH  24  26
ENDBRANCH  23  24
ENDBRANCH   1  23
TORSDOF 12

