
     RDKit          3D

  4  3  0  0  0  0  0  0  0  0999 V2000
   -1.4727   -0.8249   -0.1160 C   0  0  0  0  0  0  0  0  0  0  0  0
    0.0058    0.0797    0.3777 S   0  0  0  0  0  0  0  0  0  0  0  0
    1.5006   -0.7718   -0.1185 C   0  0  0  0  0  0  0  0  0  0  0  0
   -0.0337    1.5170   -0.1432 O   0  0  0  0  0  0  0  0  0  0  0  0
  1  2  1  0
  2  3  1  0
  2  4  2  0
M  END
>  <zinc_id>  (1) 
ZINC000005224188

>  <smiles>  (1) 
CS(C)=O

$$$$
