
     RDKit          3D

 25 24  0  0  0  0  0  0  0  0999 V2000
    9.9795    1.3496   -0.8800 C   0  0  0  0  0  0  0  0  0  0  0  0
    8.5009    1.3190   -0.5204 C   0  0  0  0  0  0  0  0  0  0  0  0
    8.1381    0.0138    0.1626 C   0  0  0  0  0  0  0  0  0  0  0  0
    7.1238   -0.7231   -0.6757 C   0  0  0  0  0  0  0  0  0  0  0  0
    5.7848   -0.0627   -0.4875 C   0  0  0  0  0  0  0  0  0  0  0  0
    5.2814   -0.4571    0.8911 C   0  0  0  0  0  0  0  0  0  0  0  0
    4.0693    0.4058    1.2155 C   0  0  0  0  0  0  0  0  0  0  0  0
    3.3265    0.6176   -0.0820 C   0  0  0  0  0  0  0  0  0  0  0  0
    3.1454   -0.6329   -0.8545 C   0  0  0  0  0  0  0  0  0  0  0  0
    2.2049   -1.5393   -0.5595 C   0  0  0  0  0  0  0  0  0  0  0  0
    1.3661   -1.2205    0.6416 C   0  0  0  0  0  0  0  0  0  0  0  0
    0.0259   -0.7868    0.1171 C   0  0  0  0  0  0  0  0  0  0  0  0
    0.0593    0.5398   -0.5911 C   0  0  0  0  0  0  0  0  0  0  0  0
   -0.7005    1.6173    0.1331 C   0  0  0  0  0  0  0  0  0  0  0  0
   -2.1687    1.5590   -0.2738 C   0  0  0  0  0  0  0  0  0  0  0  0
   -2.5299    0.1023   -0.3717 C   0  0  0  0  0  0  0  0  0  0  0  0
   -3.1498   -0.4035    0.9270 C   0  0  0  0  0  0  0  0  0  0  0  0
   -4.3955   -1.1219    0.5049 C   0  0  0  0  0  0  0  0  0  0  0  0
   -4.3119   -1.9642   -0.4397 O   0  0  0  0  0  0  0  0  0  0  0  0
   -5.6641   -0.5978    0.7065 O   0  0  0  0  0  0  0  0  0  0  0  0
   -6.5656   -0.3178   -0.3626 C   0  0  0  0  0  0  0  0  0  0  0  0
   -6.5857    1.2025   -0.4772 C   0  0  0  0  0  0  0  0  0  0  0  0
   -6.1379    1.8031    0.7105 O   0  0  0  0  0  0  0  0  0  0  0  0
   -7.9548   -0.8198   -0.0834 C   0  0  0  0  0  0  0  0  0  0  0  0
   -8.8412    0.1176   -0.6325 O   0  0  0  0  0  0  0  0  0  0  0  0
  1  2  1  0
  2  3  1  0
  3  4  1  0
  4  5  1  0
  5  6  1  0
  6  7  1  0
  7  8  1  0
  8  9  1  0
  9 10  2  0
 10 11  1  0
 11 12  1  0
 12 13  1  0
 13 14  1  0
 14 15  1  0
 15 16  1  0
 16 17  1  0
 17 18  1  0
 18 19  2  0
 18 20  1  0
 20 21  1  0
 21 22  1  0
 22 23  1  0
 21 24  1  0
 24 25  1  0
M  END
>  <zinc_id>  (1) 
ZINC000032840817

>  <smiles>  (1) 
CCCCCCCC/C=C\CCCCCCCC(=O)OC(CO)CO

$$$$
