REMARK SMILES Cc1cc(Nc2ncc(Cl)c(Nc3ccccc3S(=O)(=O)C(C)C)n2)c(OC(C)C)cc1C1CCNCC1
REMARK SMILES IDX 6 1 7 2 8 3 9 4 10 5 11 6 25 7 5 8 4 9 1 10 2 11 3 12 32 13
REMARK SMILES IDX 31 14 26 15 33 16 34 17 38 18 35 19 37 20 36 21 27 22 28 23
REMARK SMILES IDX 29 24 30 25 12 26 13 27 14 28 18 29 15 30 17 31 16 32 19 33
REMARK SMILES IDX 20 34 21 35 22 36 23 37 24 38
REMARK H PARENT
REMARK Flexibility Score: inf
ROOT
ATOM      1  C   UNL     1      -0.059  -0.385  -0.403  1.00  0.00     0.229 A 
ATOM      2  N   UNL     1       0.316  -1.105   0.678  1.00  0.00    -0.220 NA
ATOM      3  C   UNL     1      -0.534  -1.383   1.694  1.00  0.00     0.053 A 
ATOM      4  C   UNL     1      -1.831  -0.897   1.659  1.00  0.00     0.102 A 
ATOM      5  Cl  UNL     1      -2.663  -0.339   3.105  1.00  0.00    -0.079 Cl
ATOM      6  C   UNL     1      -2.280  -0.478   0.412  1.00  0.00     0.154 A 
ATOM      7  N   UNL     1      -1.392  -0.237  -0.584  1.00  0.00    -0.194 NA
ENDROOT
BRANCH   1   8
ATOM      8  N   UNL     1       0.862   0.554  -0.971  1.00  0.00    -0.321 N 
BRANCH   8   9
ATOM      9  C   UNL     1       2.246   0.388  -0.744  1.00  0.00     0.084 A 
ATOM     10  C   UNL     1       5.184  -0.591  -2.826  1.00  0.00    -0.039 C 
ATOM     11  C   UNL     1       4.382  -0.257  -1.623  1.00  0.00    -0.045 A 
ATOM     12  C   UNL     1       3.011  -0.306  -1.643  1.00  0.00    -0.031 A 
ATOM     13  C   UNL     1       5.005   0.057  -0.422  1.00  0.00    -0.038 A 
ATOM     14  C   UNL     1       4.258   0.710   0.541  1.00  0.00    -0.014 A 
ATOM     15  C   UNL     1       2.919   0.992   0.311  1.00  0.00     0.143 A 
BRANCH  13  16
ATOM     16  C   UNL     1       6.479  -0.018  -0.408  1.00  0.00    -0.013 C 
ATOM     17  C   UNL     1       7.128   0.817  -1.474  1.00  0.00    -0.034 C 
ATOM     18  C   UNL     1       7.076   0.175   0.955  1.00  0.00    -0.034 C 
ATOM     19  C   UNL     1       8.571   0.399  -1.625  1.00  0.00    -0.004 C 
ATOM     20  C   UNL     1       8.502   0.675   0.768  1.00  0.00    -0.004 C 
ATOM     21  N   UNL     1       9.071  -0.083  -0.342  1.00  0.00    -0.317 NA
ENDBRANCH  13  16
BRANCH  15  22
ATOM     22  O   UNL     1       2.107   1.584   1.281  1.00  0.00    -0.489 OA
BRANCH  22  23
ATOM     23  C   UNL     1       1.447   2.817   1.010  1.00  0.00     0.093 C 
ATOM     24  C   UNL     1       2.291   3.552  -0.021  1.00  0.00    -0.028 C 
ATOM     25  C   UNL     1       1.494   3.615   2.307  1.00  0.00    -0.028 C 
ENDBRANCH  22  23
ENDBRANCH  15  22
ENDBRANCH   8   9
ENDBRANCH   1   8
BRANCH   6  26
ATOM     26  N   UNL     1      -3.683  -0.352   0.241  1.00  0.00    -0.338 N 
BRANCH  26  27
ATOM     27  C   UNL     1      -4.486  -1.452  -0.201  1.00  0.00     0.059 A 
ATOM     28  C   UNL     1      -3.872  -2.688  -0.328  1.00  0.00    -0.037 A 
ATOM     29  C   UNL     1      -5.859  -1.422  -0.006  1.00  0.00     0.091 A 
ATOM     30  C   UNL     1      -4.583  -3.861  -0.105  1.00  0.00    -0.060 A 
ATOM     31  C   UNL     1      -6.561  -2.602  -0.131  1.00  0.00    -0.041 A 
ATOM     32  C   UNL     1      -5.942  -3.819  -0.390  1.00  0.00    -0.061 A 
BRANCH  29  33
ATOM     33  S   UNL     1      -6.568   0.003   0.745  1.00  0.00     0.182 S 
ATOM     34  O   UNL     1      -6.383  -0.101   2.225  1.00  0.00    -0.223 OA
ATOM     35  O   UNL     1      -8.040   0.108   0.430  1.00  0.00    -0.223 OA
BRANCH  33  36
ATOM     36  C   UNL     1      -5.697   1.407   0.066  1.00  0.00     0.060 C 
ATOM     37  C   UNL     1      -6.621   2.163  -0.866  1.00  0.00    -0.048 C 
ATOM     38  C   UNL     1      -5.294   2.361   1.161  1.00  0.00    -0.048 C 
ENDBRANCH  33  36
ENDBRANCH  29  33
ENDBRANCH  26  27
ENDBRANCH   6  26
TORSDOF 9

