
     RDKit          3D

 39 43  0  0  0  0  0  0  0  0999 V2000
    4.5079    3.3156   -0.6919 C   0  0  0  0  0  0  0  0  0  0  0  0
    3.5708    2.2673   -0.4900 O   0  0  0  0  0  0  0  0  0  0  0  0
    3.6919    1.3721    0.5756 C   0  0  0  0  0  0  0  0  0  0  0  0
    4.6098    1.6631    1.4015 O   0  0  0  0  0  0  0  0  0  0  0  0
    2.4985    0.6982    1.1266 C   0  0  0  0  0  0  0  0  0  0  0  0
    1.9714   -0.4033    0.2574 C   0  0  2  0  0  0  0  0  0  0  0  0
    1.3412   -1.3321    1.1007 O   0  0  0  0  0  0  0  0  0  0  0  0
    3.1451   -1.1063   -0.3677 C   0  0  0  0  0  0  0  0  0  0  0  0
    3.8088   -1.9844    0.6814 C   0  0  0  0  0  0  0  0  0  0  0  0
    5.0935   -2.5539    0.0988 C   0  0  0  0  0  0  0  0  0  0  0  0
    4.9679   -4.0183   -0.2289 C   0  0  0  0  0  0  0  0  0  0  0  0
    3.5815   -4.4807    0.1666 C   0  0  0  0  0  0  0  0  0  0  0  0
    5.2395   -4.2637   -1.7004 C   0  0  0  0  0  0  0  0  0  0  0  0
    5.8980   -4.7760    0.4921 O   0  0  0  0  0  0  0  0  0  0  0  0
    0.9800    0.0686   -0.7487 C   0  0  0  0  0  0  0  0  0  0  0  0
    1.2659   -0.1610   -1.9629 O   0  0  0  0  0  0  0  0  0  0  0  0
   -0.3594    0.2395   -0.3780 O   0  0  0  0  0  0  0  0  0  0  0  0
   -1.2759    0.5306   -1.5739 C   0  0  2  0  0  0  0  0  0  0  0  0
   -0.5383    1.9162   -1.9078 C   0  0  0  0  0  0  0  0  0  0  0  0
   -0.2962    2.2620   -3.2150 O   0  0  0  0  0  0  0  0  0  0  0  0
   -0.9202    1.6098   -4.2945 C   0  0  0  0  0  0  0  0  0  0  0  0
   -0.3718    2.5190   -0.7699 C   0  0  0  0  0  0  0  0  0  0  0  0
   -1.4413    2.2228    0.1582 C   0  0  2  0  0  0  0  0  0  0  0  0
   -2.0985    3.5533    0.5105 C   0  0  0  0  0  0  0  0  0  0  0  0
   -1.0720    4.0028    1.5522 C   0  0  0  0  0  0  0  0  0  0  0  0
   -0.1486    2.7969    1.7420 C   0  0  0  0  0  0  0  0  0  0  0  0
   -1.1368    1.7429    1.4206 N   0  0  0  0  0  0  0  0  0  0  0  0
   -2.0705    1.9813    2.4830 C   0  0  0  0  0  0  0  0  0  0  0  0
   -3.4550    1.5228    2.2930 C   0  0  0  0  0  0  0  0  0  0  0  0
   -3.4356    0.2908    1.4766 C   0  0  0  0  0  0  0  0  0  0  0  0
   -4.3899   -0.6325    1.8470 C   0  0  0  0  0  0  0  0  0  0  0  0
   -4.7581   -1.6248    0.9575 C   0  0  0  0  0  0  0  0  0  0  0  0
   -3.9029   -1.8819   -0.1075 C   0  0  0  0  0  0  0  0  0  0  0  0
   -2.8640   -1.0035   -0.3940 C   0  0  0  0  0  0  0  0  0  0  0  0
   -2.6533    0.1558    0.3432 C   0  0  0  0  0  0  0  0  0  0  0  0
   -2.4888    1.3608   -0.6894 C   0  0  2  0  0  0  0  0  0  0  0  0
   -4.5433   -2.9062   -0.8138 O   0  0  0  0  0  0  0  0  0  0  0  0
   -5.9531   -2.7671   -0.6508 C   0  0  0  0  0  0  0  0  0  0  0  0
   -5.9981   -2.1965    0.6548 O   0  0  0  0  0  0  0  0  0  0  0  0
  1  2  1  0
  2  3  1  0
  3  4  2  0
  3  5  1  0
  6  5  1  1
  6  7  1  0
  6  8  1  0
  8  9  1  0
  9 10  1  0
 10 11  1  0
 11 12  1  0
 11 13  1  0
 11 14  1  0
  6 15  1  0
 15 16  2  0
 15 17  1  0
 18 17  1  1
 18 19  1  0
 19 20  1  0
 20 21  1  0
 19 22  2  0
 23 22  1  6
 23 24  1  0
 24 25  1  0
 25 26  1  0
 26 27  1  0
 27 28  1  0
 28 29  1  0
 29 30  1  0
 30 31  2  0
 31 32  1  0
 32 33  2  0
 33 34  1  0
 34 35  2  0
 36 35  1  1
 33 37  1  0
 37 38  1  0
 38 39  1  0
 36 18  1  0
 27 23  1  0
 35 30  1  0
 36 23  1  0
 39 32  1  0
M  END
>  <zinc_id>  (1) 
ZINC000026011099

>  <smiles>  (1) 
COC(=O)C[C@](O)(CCCC(C)(C)O)C(=O)O[C@@H]1C(OC)=C[C@]23CCCN2CCc2cc4c(cc2[C@H]13)OCO4

$$$$
