REMARK SMILES Cc1cc(C)cc(NC(=O)Cc2ccc(OC(C)(C)C(=O)O)cc2)c1
REMARK SMILES IDX 12 1 13 2 14 3 15 4 23 5 24 6 11 7 9 8 8 9 10 10 7 11 1 12
REMARK SMILES IDX 2 13 3 14 25 15 4 16 5 17 6 18 16 19 17 20 18 21 19 22 20 23
REMARK SMILES IDX 21 24 22 25
REMARK H PARENT
REMARK Flexibility Score: inf
ROOT
ATOM      1  C   UNL     1      -0.614   0.019  -0.519  1.00  0.00    -0.038 A 
ATOM      2  C   UNL     1      -1.498   0.871  -1.170  1.00  0.00    -0.055 A 
ATOM      3  C   UNL     1      -2.468   1.444  -0.358  1.00  0.00    -0.020 A 
ATOM      4  C   UNL     1      -3.076   0.585   0.548  1.00  0.00     0.121 A 
ATOM      5  C   UNL     1      -2.355  -0.457   1.111  1.00  0.00    -0.020 A 
ATOM      6  C   UNL     1      -1.157  -0.756   0.493  1.00  0.00    -0.055 A 
ENDROOT
BRANCH   1   7
ATOM      7  C   UNL     1       0.734  -0.241  -1.062  1.00  0.00     0.052 C 
BRANCH   7   8
ATOM      8  C   UNL     1       1.807   0.424  -0.260  1.00  0.00     0.228 C 
ATOM      9  N   UNL     1       2.451  -0.223   0.837  1.00  0.00    -0.326 N 
ATOM     10  O   UNL     1       2.461   1.371  -0.793  1.00  0.00    -0.274 OA
BRANCH   9  11
ATOM     11  C   UNL     1       3.877  -0.337   0.928  1.00  0.00     0.041 A 
ATOM     12  C   UNL     1       6.685   1.300  -0.987  1.00  0.00    -0.040 C 
ATOM     13  C   UNL     1       5.942   0.289  -0.169  1.00  0.00    -0.049 A 
ATOM     14  C   UNL     1       6.256  -1.041  -0.408  1.00  0.00    -0.056 A 
ATOM     15  C   UNL     1       4.693   0.618   0.336  1.00  0.00    -0.036 A 
ATOM     16  C   UNL     1       5.567  -1.980   0.327  1.00  0.00    -0.049 A 
ATOM     17  C   UNL     1       6.083  -3.374   0.284  1.00  0.00    -0.040 C 
ATOM     18  C   UNL     1       4.399  -1.624   0.965  1.00  0.00    -0.036 A 
ENDBRANCH   9  11
ENDBRANCH   7   8
ENDBRANCH   1   7
BRANCH   4  19
ATOM     19  O   UNL     1      -4.272   1.008   1.127  1.00  0.00    -0.476 OA
BRANCH  19  20
ATOM     20  C   UNL     1      -5.447   1.008   0.344  1.00  0.00     0.199 C 
ATOM     21  C   UNL     1      -5.092   1.319  -1.087  1.00  0.00    -0.014 C 
ATOM     22  C   UNL     1      -6.370   2.072   0.886  1.00  0.00    -0.014 C 
BRANCH  20  23
ATOM     23  C   UNL     1      -6.104  -0.332   0.455  1.00  0.00     0.347 C 
ATOM     24  O   UNL     1      -5.669  -1.312  -0.214  1.00  0.00    -0.248 OA
ATOM     25  O   UNL     1      -6.832  -0.652   1.597  1.00  0.00    -0.478 OA
ENDBRANCH  20  23
ENDBRANCH  19  20
ENDBRANCH   4  19
TORSDOF 6

