
     RDKit          3D

 32 36  0  0  0  0  0  0  0  0999 V2000
    8.3571    0.6130    0.6772 C   0  0  0  0  0  0  0  0  0  0  0  0
    7.7949   -0.6178    0.4732 C   0  0  0  0  0  0  0  0  0  0  0  0
    6.5290   -0.7814   -0.0332 C   0  0  0  0  0  0  0  0  0  0  0  0
    5.7403    0.3311   -0.1462 C   0  0  0  0  0  0  0  0  0  0  0  0
    4.2931    0.1745   -0.3222 C   0  0  0  0  0  0  0  0  0  0  0  0
    3.5104    1.1895   -0.8561 C   0  0  0  0  0  0  0  0  0  0  0  0
    2.1722    1.2820   -0.4942 C   0  0  0  0  0  0  0  0  0  0  0  0
    1.6314    0.4785    0.5014 C   0  0  0  0  0  0  0  0  0  0  0  0
    0.6096    1.0459    1.4353 C   0  0  0  0  0  0  0  0  0  0  0  0
   -0.6259    0.2869    1.2622 N   0  0  0  0  0  0  0  0  0  0  0  0
   -1.4268    0.4423    0.0925 C   0  0  0  0  0  0  0  0  0  0  0  0
   -2.2991    1.4703   -0.0557 N   0  0  0  0  0  0  0  0  0  0  0  0
   -3.2646    1.4506   -1.0058 C   0  0  0  0  0  0  0  0  0  0  0  0
   -4.6087    1.9612   -0.7082 C   0  0  0  0  0  0  0  0  0  0  0  0
   -4.9760    2.3705    0.5646 C   0  0  0  0  0  0  0  0  0  0  0  0
   -6.2022    2.0160    1.1129 C   0  0  0  0  0  0  0  0  0  0  0  0
   -7.1230    1.3717    0.2958 C   0  0  0  0  0  0  0  0  0  0  0  0
   -6.8965    1.5040   -1.0685 C   0  0  0  0  0  0  0  0  0  0  0  0
   -5.6324    1.6483   -1.5356 N   0  0  0  0  0  0  0  0  0  0  0  0
   -3.0633    0.5604   -2.0074 N   0  0  0  0  0  0  0  0  0  0  0  0
   -2.2163   -0.4619   -1.8838 N   0  0  0  0  0  0  0  0  0  0  0  0
   -1.5470   -0.6707   -0.7270 C   0  0  0  0  0  0  0  0  0  0  0  0
   -1.3668   -2.0270   -0.1944 C   0  0  0  0  0  0  0  0  0  0  0  0
   -1.6877   -3.1059   -0.9819 C   0  0  0  0  0  0  0  0  0  0  0  0
   -2.1133   -4.2886   -0.3877 C   0  0  0  0  0  0  0  0  0  0  0  0
   -2.3706   -4.3289    0.9777 C   0  0  0  0  0  0  0  0  0  0  0  0
   -1.7708   -3.3789    1.7667 C   0  0  0  0  0  0  0  0  0  0  0  0
   -1.1897   -2.2764    1.1522 C   0  0  0  0  0  0  0  0  0  0  0  0
    2.3527   -0.6665    0.8149 C   0  0  0  0  0  0  0  0  0  0  0  0
    3.5964   -0.8894    0.2374 C   0  0  0  0  0  0  0  0  0  0  0  0
    6.2494    1.5746    0.1607 C   0  0  0  0  0  0  0  0  0  0  0  0
    7.5444    1.7221    0.6214 C   0  0  0  0  0  0  0  0  0  0  0  0
  1  2  2  0
  2  3  1  0
  3  4  2  0
  4  5  1  0
  5  6  2  0
  6  7  1  0
  7  8  2  0
  8  9  1  0
  9 10  1  0
 10 11  1  0
 11 12  2  0
 12 13  1  0
 13 14  1  0
 14 15  2  0
 15 16  1  0
 16 17  2  0
 17 18  1  0
 18 19  2  0
 13 20  2  0
 20 21  1  0
 21 22  2  0
 22 23  1  0
 23 24  2  0
 24 25  1  0
 25 26  2  0
 26 27  1  0
 27 28  2  0
  8 29  1  0
 29 30  2  0
  4 31  1  0
 31 32  2  0
 32  1  1  0
 30  5  1  0
 22 11  1  0
 28 23  1  0
 19 14  1  0
M  END
>  <zinc_id>  (1) 
ZINC000095567261

>  <smiles>  (1) 
c1ccc(-c2ccc(CNc3nc(-c4ccccn4)nnc3-c3ccccc3)cc2)cc1

$$$$
