
     RDKit          3D

 40 45  0  0  0  0  0  0  0  0999 V2000
   -6.6260    4.3816   -0.1433 C   0  0  0  0  0  0  0  0  0  0  0  0
   -7.4840    3.3207    0.1882 O   0  0  0  0  0  0  0  0  0  0  0  0
   -7.4087    2.3294   -0.7899 C   0  0  0  0  0  0  0  0  0  0  0  0
   -8.3936    1.2503   -0.4421 C   0  0  0  0  0  0  0  0  0  0  0  0
   -7.9915    0.4326    0.6699 N   0  0  0  0  0  0  0  0  0  0  0  0
   -6.6797    0.7329    1.1739 C   0  0  0  0  0  0  0  0  0  0  0  0
   -5.5972   -0.1393    0.6045 C   0  0  0  0  0  0  0  0  0  0  0  0
   -5.9051   -1.5443    0.6411 N   0  0  0  0  0  0  0  0  0  0  0  0
   -4.9161   -2.3377    1.3229 C   0  0  0  0  0  0  0  0  0  0  0  0
   -3.8052   -2.7679    0.4214 C   0  0  0  0  0  0  0  0  0  0  0  0
   -2.5241   -2.9846    0.9150 C   0  0  0  0  0  0  0  0  0  0  0  0
   -1.4135   -2.6011    0.1723 C   0  0  0  0  0  0  0  0  0  0  0  0
   -1.5418   -2.0140   -1.0808 C   0  0  0  0  0  0  0  0  0  0  0  0
   -0.6831   -0.9026   -1.5108 C   0  0  0  0  0  0  0  0  0  0  0  0
   -1.0150    0.1479   -2.3013 N   0  0  0  0  0  0  0  0  0  0  0  0
   -0.4843    1.2542   -1.7953 N   0  0  0  0  0  0  0  0  0  0  0  0
    0.5584    0.9250   -0.9953 C   0  0  0  0  0  0  0  0  0  0  0  0
    0.4226   -0.4450   -0.8047 C   0  0  0  0  0  0  0  0  0  0  0  0
    1.5626   -0.9253   -0.0274 C   0  0  0  0  0  0  0  0  0  0  0  0
    1.7862   -2.0956    0.3483 O   0  0  0  0  0  0  0  0  0  0  0  0
    2.2021    0.2822    0.4885 C   0  0  0  0  0  0  0  0  0  0  0  0
    1.5484    1.3982   -0.0197 C   0  0  0  0  0  0  0  0  0  0  0  0
    1.8799    2.6560    0.4299 C   0  0  0  0  0  0  0  0  0  0  0  0
    2.9179    2.7858    1.3170 C   0  0  0  0  0  0  0  0  0  0  0  0
    3.5756    1.6664    1.8035 C   0  0  0  0  0  0  0  0  0  0  0  0
    3.3126    0.3939    1.3120 C   0  0  0  0  0  0  0  0  0  0  0  0
    4.3528   -0.5781    1.1503 N   0  0  0  0  0  0  0  0  0  0  0  0
    5.3365   -0.3332    0.1389 C   0  0  0  0  0  0  0  0  0  0  0  0
    5.0262    0.3162   -0.9044 O   0  0  0  0  0  0  0  0  0  0  0  0
    6.7003   -0.6812    0.2926 N   0  0  0  0  0  0  0  0  0  0  0  0
    7.7184   -0.1920   -0.5496 N   0  0  0  0  0  0  0  0  0  0  0  0
    7.6293    1.2631   -0.6468 C   0  0  0  0  0  0  0  0  0  0  0  0
    8.9710    1.8893   -0.3072 C   0  0  0  0  0  0  0  0  0  0  0  0
    9.9349    1.2602   -1.1109 O   0  0  0  0  0  0  0  0  0  0  0  0
   10.1483   -0.0444   -0.6922 C   0  0  0  0  0  0  0  0  0  0  0  0
    8.9737   -0.5048    0.1251 C   0  0  0  0  0  0  0  0  0  0  0  0
   -2.7809   -2.1995   -1.6828 C   0  0  0  0  0  0  0  0  0  0  0  0
   -3.8849   -2.6369   -0.9599 C   0  0  0  0  0  0  0  0  0  0  0  0
   -7.1976   -1.7832    1.2305 C   0  0  0  0  0  0  0  0  0  0  0  0
   -8.2255   -0.9753    0.4674 C   0  0  0  0  0  0  0  0  0  0  0  0
  1  2  1  0
  2  3  1  0
  3  4  1  0
  4  5  1  0
  5  6  1  0
  6  7  1  0
  7  8  1  0
  8  9  1  0
  9 10  1  0
 10 11  2  0
 11 12  1  0
 12 13  2  0
 13 14  1  0
 14 15  1  0
 15 16  1  0
 16 17  2  0
 17 18  1  0
 18 19  1  0
 19 20  2  0
 19 21  1  0
 21 22  2  0
 22 23  1  0
 23 24  2  0
 24 25  1  0
 25 26  2  0
 26 27  1  0
 27 28  1  0
 28 29  2  0
 28 30  1  0
 30 31  1  0
 31 32  1  0
 32 33  1  0
 33 34  1  0
 34 35  1  0
 35 36  1  0
 13 37  1  0
 37 38  2  0
  8 39  1  0
 39 40  1  0
 40  5  1  0
 38 10  1  0
 18 14  2  0
 26 21  1  0
 36 31  1  0
 22 17  1  0
M  END
>  <zinc_id>  (1) 
ZINC000043128366

>  <smiles>  (1) 
COCCN1CCN(Cc2ccc(-c3[nH]nc4c3C(=O)c3c(NC(=O)NN5CCOCC5)cccc3-4)cc2)CC1

$$$$
