REMARK SMILES O=C(O)c1ccc2c(c1)C(=O)N(c1cccc(Oc3ccc([N+](=O)[O-])cc3)c1)C2=O
REMARK SMILES IDX 13 1 14 2 15 3 16 4 17 5 28 6 12 7 4 8 5 9 9 10 6 11 8 12
REMARK SMILES IDX 7 13 10 14 29 15 11 16 30 17 2 18 1 19 3 20 18 21 19 22
REMARK SMILES IDX 20 23 27 24 21 25 26 26 22 27 23 28 24 29 25 30
REMARK H PARENT
REMARK Flexibility Score: inf
ROOT
ATOM      1  C   UNL     1      -0.310  -0.814  -0.377  1.00  0.00     0.056 A 
ATOM      2  C   UNL     1      -0.397  -2.078  -0.925  1.00  0.00    -0.038 A 
ATOM      3  C   UNL     1       0.639  -3.000  -0.847  1.00  0.00    -0.056 A 
ATOM      4  C   UNL     1       1.857  -2.572  -0.364  1.00  0.00    -0.019 A 
ATOM      5  C   UNL     1       1.857  -1.417   0.403  1.00  0.00     0.129 A 
ATOM      6  C   UNL     1       0.902  -0.438   0.151  1.00  0.00     0.005 A 
ENDROOT
BRANCH   1   7
ATOM      7  N   UNL     1      -1.493  -0.028  -0.254  1.00  0.00    -0.242 N 
ATOM      8  C   UNL     1      -6.094   0.208   0.221  1.00  0.00     0.060 A 
ATOM      9  C   UNL     1      -5.976   0.255  -1.163  1.00  0.00    -0.047 A 
ATOM     10  C   UNL     1      -4.949   0.295   0.997  1.00  0.00    -0.034 A 
ATOM     11  C   UNL     1      -4.795   0.786  -1.669  1.00  0.00    -0.048 A 
ATOM     12  C   UNL     1      -3.681   0.398   0.446  1.00  0.00     0.054 A 
ATOM     13  C   UNL     1      -3.639   0.743  -0.900  1.00  0.00     0.053 A 
ATOM     14  C   UNL     1      -2.348  -0.034   0.883  1.00  0.00     0.266 C 
ATOM     15  C   UNL     1      -2.214   0.686  -1.252  1.00  0.00     0.266 C 
ATOM     16  O   UNL     1      -2.012  -0.205   2.092  1.00  0.00    -0.268 OA
ATOM     17  O   UNL     1      -1.708   1.035  -2.354  1.00  0.00    -0.268 OA
BRANCH   8  18
ATOM     18  C   UNL     1      -7.379   0.449   0.889  1.00  0.00     0.335 C 
ATOM     19  O   UNL     1      -7.950  -0.469   1.520  1.00  0.00    -0.246 OA
ATOM     20  O   UNL     1      -7.740   1.781   1.123  1.00  0.00    -0.478 OA
ENDBRANCH   8  18
ENDBRANCH   1   7
BRANCH   5  21
ATOM     21  O   UNL     1       3.109  -0.946   0.791  1.00  0.00    -0.457 OA
BRANCH  21  22
ATOM     22  C   UNL     1       3.955  -0.549  -0.249  1.00  0.00     0.127 A 
ATOM     23  C   UNL     1       3.924   0.739  -0.769  1.00  0.00    -0.012 A 
ATOM     24  C   UNL     1       5.128  -1.250  -0.507  1.00  0.00    -0.012 A 
ATOM     25  C   UNL     1       5.106   1.427  -1.017  1.00  0.00     0.020 A 
ATOM     26  C   UNL     1       6.296  -0.573  -0.836  1.00  0.00     0.020 A 
ATOM     27  C   UNL     1       6.346   0.816  -0.866  1.00  0.00     0.269 A 
BRANCH  27  28
ATOM     28  N   UNL     1       7.455   1.523  -0.296  1.00  0.00     0.062 N 
ATOM     29  O   UNL     1       7.383   2.033   0.851  1.00  0.00    -0.258 OA
ATOM     30  O   UNL     1       8.727   1.198  -0.725  1.00  0.00    -0.258 OA
ENDBRANCH  27  28
ENDBRANCH  21  22
ENDBRANCH   5  21
TORSDOF 5

