REMARK SMILES C/C=C(/C)C(=O)O[C@H]1C(C)=C[C@]23C(=O)[C@@H](C=C(CO)[C@@H](O)[C@]12O)[C@H]1[C@@H](C[C@H]3C)C1(C)C
REMARK SMILES IDX 8 1 9 2 10 3 11 4 12 5 22 6 23 7 7 8 5 9 6 10 3 11 1 12 2 13
REMARK SMILES IDX 4 14 20 15 21 16 17 17 16 18 18 20 19 21 13 22 14 23 15 24
REMARK SMILES IDX 24 26 25 27 29 28 30 30 31 31 27 32 28 33 26 34
REMARK H PARENT
REMARK Flexibility Score: 190.00
ROOT
ATOM      1  C   UNL     1       1.673  -0.152   0.565  1.00  0.00     0.156 C 
ATOM      2  C   UNL     1       1.501   0.959   1.728  1.00  0.00    -0.033 C 
ATOM      3  C   UNL     1       2.540   0.964   2.808  1.00  0.00    -0.040 C 
ATOM      4  C   UNL     1       0.224   0.922   1.959  1.00  0.00    -0.065 C 
ATOM      5  C   UNL     1      -0.543   0.777   0.668  1.00  0.00     0.086 C 
ATOM      6  C   UNL     1       0.385   0.447  -0.270  1.00  0.00     0.151 C 
ATOM      7  O   UNL     1       0.799   1.381  -1.147  1.00  0.00    -0.381 OA
ENDROOT
BRANCH   1   8
ATOM      8  O   UNL     1       2.764   0.696  -0.127  1.00  0.00    -0.451 OA
BRANCH   8   9
ATOM      9  C   UNL     1       3.780  -0.130  -0.547  1.00  0.00     0.334 C 
ATOM     10  O   UNL     1       3.466  -0.993  -1.401  1.00  0.00    -0.247 OA
BRANCH   9  11
ATOM     11  C   UNL     1       5.193   0.039  -0.262  1.00  0.00     0.030 C 
ATOM     12  C   UNL     1       5.242  -2.422  -0.175  1.00  0.00    -0.046 C 
ATOM     13  C   UNL     1       5.881  -1.076  -0.035  1.00  0.00    -0.077 C 
ATOM     14  C   UNL     1       5.813   1.324   0.115  1.00  0.00    -0.033 C 
ENDBRANCH   9  11
ENDBRANCH   8   9
ENDBRANCH   1   8
BRANCH   6  15
ATOM     15  C   UNL     1       0.299  -0.898  -1.205  1.00  0.00     0.111 C 
ATOM     16  O   UNL     1      -0.779  -0.311  -2.108  1.00  0.00    -0.385 OA
BRANCH  15  17
ATOM     17  C   UNL     1      -0.710  -1.825  -0.329  1.00  0.00    -0.017 C 
ATOM     18  C   UNL     1      -2.052  -1.787  -0.234  1.00  0.00    -0.070 CG0
ATOM     19  G   UNL     1      -2.493  -0.258  -0.314  1.00  0.00     0.000 G0
BRANCH  17  20
ATOM     20  C   UNL     1      -0.254  -3.199  -0.753  1.00  0.00     0.067 C 
ATOM     21  O   UNL     1      -0.355  -4.124   0.256  1.00  0.00    -0.392 OA
ENDBRANCH  17  20
ENDBRANCH  15  17
ENDBRANCH   6  15
BRANCH   5  22
ATOM     22  C   UNL     1      -1.695   0.079   1.049  1.00  0.00     0.153 C 
ATOM     23  O   UNL     1      -1.778  -0.705   1.916  1.00  0.00    -0.298 OA
BRANCH  22  24
ATOM     24  C   UNL     1      -2.493  -0.258  -0.314  1.00  0.00     0.041 CG0
ATOM     25  G   UNL     1      -2.052  -1.787  -0.234  1.00  0.00     0.000 G0
BRANCH  24  26
ATOM     26  C   UNL     1      -3.861  -0.228   0.683  1.00  0.00    -0.019 C 
ATOM     27  C   UNL     1      -3.718   1.474   0.909  1.00  0.00    -0.031 CG1
ATOM     28  C   UNL     1      -4.846   0.859  -0.184  1.00  0.00    -0.028 C 
ATOM     29  G   UNL     1      -2.611   1.843  -0.230  1.00  0.00     0.000 G1
ATOM     30  C   UNL     1      -6.160   0.995   0.497  1.00  0.00    -0.059 C 
ATOM     31  C   UNL     1      -4.684   0.756  -1.547  1.00  0.00    -0.059 C 
ENDBRANCH  24  26
ENDBRANCH  22  24
ENDBRANCH   5  22
BRANCH   5  32
ATOM     32  C   UNL     1      -1.220   2.262   0.485  1.00  0.00    -0.025 C 
ATOM     33  C   UNL     1      -1.800   2.331   2.013  1.00  0.00    -0.061 C 
BRANCH  32  34
ATOM     34  C   UNL     1      -2.611   1.843  -0.230  1.00  0.00    -0.046 CG1
ATOM     35  G   UNL     1      -3.718   1.474   0.909  1.00  0.00     0.000 G1
ENDBRANCH  32  34
ENDBRANCH   5  32
TORSDOF 4

