
     RDKit          3D

 24 26  0  0  0  0  0  0  0  0999 V2000
   -5.5180    0.5190   -1.0356 N   0  0  0  0  0  0  0  0  0  0  0  0
   -4.6902    0.5317   -0.0207 C   0  0  0  0  0  0  0  0  0  0  0  0
   -5.0373    0.0797    1.2104 N   0  0  0  0  0  0  0  0  0  0  0  0
   -4.1100   -0.2845    2.1312 C   0  0  0  0  0  0  0  0  0  0  0  0
   -4.3748   -0.1426    3.4641 F   0  0  0  0  0  0  0  0  0  0  0  0
   -2.8747   -0.6215    1.6772 N   0  0  0  0  0  0  0  0  0  0  0  0
   -2.4252   -0.2216    0.4621 C   0  0  0  0  0  0  0  0  0  0  0  0
   -3.3215    0.5591   -0.2601 C   0  0  0  0  0  0  0  0  0  0  0  0
   -2.6327    1.3648   -1.0774 N   0  0  0  0  0  0  0  0  0  0  0  0
   -1.3498    1.0175   -0.9373 C   0  0  0  0  0  0  0  0  0  0  0  0
   -1.2030    0.1794    0.0243 N   0  0  0  0  0  0  0  0  0  0  0  0
    0.0113   -0.7730    0.3242 C   0  0  2  0  0  0  0  0  0  0  0  0
    1.0761    0.2759    0.0885 O   0  0  0  0  0  0  0  0  0  0  0  0
    2.1039   -0.7837    0.3587 C   0  0  2  0  0  0  0  0  0  0  0  0
    3.2536   -0.0126   -0.5242 C   0  0  0  0  0  0  0  0  0  0  0  0
    3.8597    0.9430    0.2055 O   0  0  0  0  0  0  0  0  0  0  0  0
    5.4544    0.9006   -0.4141 P   0  0  0  0  0  0  0  0  0  0  0  0
    6.2965    2.0231    0.0728 O   0  0  0  0  0  0  0  0  0  0  0  0
    6.0490   -0.6153    0.0808 O   0  0  0  0  0  0  0  0  0  0  0  0
    5.4396    0.8633   -2.1145 O   0  0  0  0  0  0  0  0  0  0  0  0
    1.7955   -1.7573   -1.0099 C   0  0  1  0  0  0  0  0  0  0  0  0
    1.2825   -2.8751   -0.1437 O   0  0  0  0  0  0  0  0  0  0  0  0
    0.2173   -1.2366   -1.3155 C   0  0  2  0  0  0  0  0  0  0  0  0
    0.6978    0.0665   -1.8853 O   0  0  0  0  0  0  0  0  0  0  0  0
  1  2  1  0
  2  3  2  0
  3  4  1  0
  4  5  1  0
  4  6  2  0
  6  7  1  0
  7  8  2  0
  8  9  1  0
  9 10  2  0
 10 11  1  0
 12 11  1  6
 12 13  1  0
 13 14  1  0
 14 15  1  6
 15 16  1  0
 16 17  1  0
 17 18  2  0
 17 19  1  0
 17 20  1  0
 14 21  1  0
 21 22  1  1
 21 23  1  0
 23 24  1  6
  8  2  1  0
 23 12  1  0
 11  7  1  0
M  END
>  <zinc_id>  (1) 
ZINC000003927870

>  <smiles>  (1) 
Nc1nc(F)nc2c1ncn2[C@@H]1O[C@H](COP(=O)(O)O)[C@@H](O)[C@@H]1O

$$$$
