
     RDKit          3D

 23 25  0  0  0  0  0  0  0  0999 V2000
   -0.2024    0.6982   -1.0648 O   0  0  0  0  0  0  0  0  0  0  0  0
   -0.8818   -0.2304   -0.5578 C   0  0  0  0  0  0  0  0  0  0  0  0
   -1.7250   -0.9527   -1.4264 N   0  0  0  0  0  0  0  0  0  0  0  0
   -2.5909   -0.1946   -2.3260 C   0  0  0  0  0  0  0  0  0  0  0  0
   -3.9412   -0.1649   -1.6842 C   0  0  0  0  0  0  0  0  0  0  0  0
   -4.8331    0.8229   -2.0672 C   0  0  0  0  0  0  0  0  0  0  0  0
   -5.8017    1.3038   -1.1960 C   0  0  0  0  0  0  0  0  0  0  0  0
   -5.9924    0.6407   -0.0057 C   0  0  0  0  0  0  0  0  0  0  0  0
   -5.1424   -0.3506    0.4171 C   0  0  0  0  0  0  0  0  0  0  0  0
   -5.3609   -1.1320    1.5416 O   0  0  0  0  0  0  0  0  0  0  0  0
   -4.2359   -0.8342   -0.5197 C   0  0  0  0  0  0  0  0  0  0  0  0
   -0.6617   -0.5211    0.8065 N   0  0  0  0  0  0  0  0  0  0  0  0
    0.6820   -0.5639    1.3055 C   0  0  0  0  0  0  0  0  0  0  0  0
    1.7009    0.2887    1.0390 N   0  0  0  0  0  0  0  0  0  0  0  0
    2.8902   -0.2874    1.2113 C   0  0  0  0  0  0  0  0  0  0  0  0
    4.0897    0.1618    0.4883 C   0  0  0  0  0  0  0  0  0  0  0  0
    4.2974   -0.0685   -0.8427 C   0  0  0  0  0  0  0  0  0  0  0  0
    5.4875    0.3229   -1.4447 C   0  0  0  0  0  0  0  0  0  0  0  0
    6.4476    0.8428   -0.6668 N   0  0  0  0  0  0  0  0  0  0  0  0
    6.3476    0.9558    0.6723 C   0  0  0  0  0  0  0  0  0  0  0  0
    5.1110    0.7279    1.2187 C   0  0  0  0  0  0  0  0  0  0  0  0
    2.9754   -0.9153    2.4513 C   0  0  0  0  0  0  0  0  0  0  0  0
    1.3399   -1.4038    2.6506 S   0  0  0  0  0  0  0  0  0  0  0  0
  1  2  2  0
  2  3  1  0
  3  4  1  0
  4  5  1  0
  5  6  2  0
  6  7  1  0
  7  8  2  0
  8  9  1  0
  9 10  1  0
  9 11  2  0
  2 12  1  0
 12 13  1  0
 13 14  2  0
 14 15  1  0
 15 16  1  0
 16 17  2  0
 17 18  1  0
 18 19  2  0
 19 20  1  0
 20 21  2  0
 15 22  2  0
 22 23  1  0
 11  5  1  0
 23 13  1  0
 21 16  1  0
M  END
>  <zinc_id>  (1) 
ZINC000072317687

>  <smiles>  (1) 
O=C(NCc1cccc(O)c1)Nc1nc(-c2ccncc2)cs1

$$$$
