
     RDKit          3D

 20 22  0  0  0  0  0  0  0  0999 V2000
    6.4994   -0.1881   -0.2792 C   0  0  0  0  0  0  0  0  0  0  0  0
    5.5044    0.7238    0.1187 O   0  0  0  0  0  0  0  0  0  0  0  0
    4.1584    0.4024    0.0863 C   0  0  0  0  0  0  0  0  0  0  0  0
    3.7557   -0.5569   -0.8358 C   0  0  0  0  0  0  0  0  0  0  0  0
    2.4065   -0.8791   -0.9216 C   0  0  0  0  0  0  0  0  0  0  0  0
    1.5110   -0.5692    0.0947 C   0  0  0  0  0  0  0  0  0  0  0  0
    0.1244   -0.2502   -0.2484 C   0  0  0  0  0  0  0  0  0  0  0  0
   -0.1479    0.8559   -1.0465 C   0  0  0  0  0  0  0  0  0  0  0  0
   -1.2813    1.5110   -0.9075 O   0  0  0  0  0  0  0  0  0  0  0  0
   -2.3060    0.8204   -0.4467 C   0  0  0  0  0  0  0  0  0  0  0  0
   -3.4916    1.4814   -0.1577 C   0  0  0  0  0  0  0  0  0  0  0  0
   -4.6242    0.6879   -0.0922 C   0  0  0  0  0  0  0  0  0  0  0  0
   -5.8894    1.1917   -0.4084 O   0  0  0  0  0  0  0  0  0  0  0  0
   -4.5328   -0.6833    0.1082 C   0  0  0  0  0  0  0  0  0  0  0  0
   -3.2929   -1.2946    0.2185 C   0  0  0  0  0  0  0  0  0  0  0  0
   -2.2026   -0.5328   -0.1530 C   0  0  0  0  0  0  0  0  0  0  0  0
   -0.9356   -1.0741    0.0349 C   0  0  0  0  0  0  0  0  0  0  0  0
   -0.7278   -2.1102    0.6991 O   0  0  0  0  0  0  0  0  0  0  0  0
    2.0781    0.0169    1.2196 C   0  0  0  0  0  0  0  0  0  0  0  0
    3.3942    0.4470    1.2454 C   0  0  0  0  0  0  0  0  0  0  0  0
  1  2  1  0
  2  3  1  0
  3  4  2  0
  4  5  1  0
  5  6  2  0
  6  7  1  0
  7  8  2  0
  8  9  1  0
  9 10  1  0
 10 11  2  0
 11 12  1  0
 12 13  1  0
 12 14  2  0
 14 15  1  0
 15 16  2  0
 16 17  1  0
 17 18  2  0
  6 19  1  0
 19 20  2  0
 20  3  1  0
 17  7  1  0
 16 10  1  0
M  END
>  <zinc_id>  (1) 
ZINC000018847036

>  <smiles>  (1) 
COc1ccc(-c2coc3cc(O)ccc3c2=O)cc1

$$$$
