REMARK SMILES Cc1ccc(Cl)c(Nc2ccccc2C(=O)O)c1Cl
REMARK SMILES IDX 9 1 10 2 11 3 12 4 13 5 14 6 8 7 7 8 1 9 2 10 3 11 18 12
REMARK SMILES IDX 4 13 19 14 5 15 6 16 15 17 16 18 17 19
REMARK H PARENT
REMARK Flexibility Score: inf
ROOT
ATOM      1  C   UNL     1       1.193  -0.686  -0.034  1.00  0.00     0.053 A 
ATOM      2  C   UNL     1       1.476  -2.046  -0.115  1.00  0.00    -0.038 A 
ATOM      3  C   UNL     1       2.768  -2.516  -0.319  1.00  0.00    -0.060 A 
ATOM      4  C   UNL     1       3.787  -1.761   0.237  1.00  0.00    -0.061 A 
ATOM      5  C   UNL     1       3.509  -0.466   0.658  1.00  0.00    -0.046 A 
ATOM      6  C   UNL     1       2.270   0.097   0.369  1.00  0.00     0.083 A 
ENDROOT
BRANCH   1   7
ATOM      7  N   UNL     1       0.100  -0.092  -0.730  1.00  0.00    -0.352 N 
BRANCH   7   8
ATOM      8  C   UNL     1      -1.244  -0.124  -0.266  1.00  0.00     0.077 A 
ATOM      9  C   UNL     1      -3.982   2.360   0.519  1.00  0.00    -0.038 C 
ATOM     10  C   UNL     1      -3.321   1.068   0.152  1.00  0.00    -0.030 A 
ATOM     11  C   UNL     1      -4.043  -0.112   0.087  1.00  0.00    -0.056 A 
ATOM     12  C   UNL     1      -1.958   1.062  -0.127  1.00  0.00     0.069 A 
ATOM     13  C   UNL     1      -3.340  -1.297  -0.091  1.00  0.00    -0.041 A 
ATOM     14  Cl  UNL     1      -1.320   2.601  -0.704  1.00  0.00    -0.082 Cl
ATOM     15  C   UNL     1      -2.012  -1.260  -0.495  1.00  0.00     0.066 A 
ATOM     16  Cl  UNL     1      -1.463  -2.576  -1.528  1.00  0.00    -0.082 Cl
ENDBRANCH   7   8
ENDBRANCH   1   7
BRANCH   6  17
ATOM     17  C   UNL     1       2.300   1.549   0.145  1.00  0.00     0.337 C 
ATOM     18  O   UNL     1       2.894   2.260   1.010  1.00  0.00    -0.246 OA
ATOM     19  O   UNL     1       2.386   1.940  -1.195  1.00  0.00    -0.478 OA
ENDBRANCH   6  17
TORSDOF 3

