REMARK SMILES CC1=CC(=O)c2ccccc2C1=O
REMARK SMILES IDX 1 1 2 2 3 3 4 4 5 5 6 6 7 7 8 8 9 9 10 10 11 11 12 12 13 13
REMARK H PARENT
REMARK Flexibility Score: inf
ROOT
ATOM      1  C   UNL     1      -3.035  -1.032   0.998  1.00  0.00    -0.036 C 
ATOM      2  C   UNL     1      -2.011  -0.414   0.109  1.00  0.00     0.001 C 
ATOM      3  C   UNL     1      -1.935   0.917   0.122  1.00  0.00    -0.007 C 
ATOM      4  C   UNL     1      -0.659   1.556  -0.226  1.00  0.00     0.186 C 
ATOM      5  O   UNL     1      -0.550   2.812  -0.274  1.00  0.00    -0.289 OA
ATOM      6  C   UNL     1       0.595   0.800  -0.265  1.00  0.00     0.033 A 
ATOM      7  C   UNL     1       1.768   1.274   0.296  1.00  0.00    -0.050 A 
ATOM      8  C   UNL     1       2.783   0.425   0.723  1.00  0.00    -0.061 A 
ATOM      9  C   UNL     1       2.766  -0.880   0.242  1.00  0.00    -0.061 A 
ATOM     10  C   UNL     1       1.636  -1.308  -0.445  1.00  0.00    -0.050 A 
ATOM     11  C   UNL     1       0.477  -0.562  -0.493  1.00  0.00     0.033 A 
ATOM     12  C   UNL     1      -0.861  -1.164  -0.411  1.00  0.00     0.189 C 
ATOM     13  O   UNL     1      -0.974  -2.424  -0.376  1.00  0.00    -0.289 OA
ENDROOT
TORSDOF 0

