
     RDKit          3D

 35 39  0  0  0  0  0  0  0  0999 V2000
   -5.1146    5.5833   -0.2324 C   0  0  0  0  0  0  0  0  0  0  0  0
   -4.8576    4.3931   -0.3697 C   0  0  0  0  0  0  0  0  0  0  0  0
   -5.7605    3.4313    0.3499 C   0  0  0  0  0  0  0  0  0  0  0  0
   -5.8641    2.0886   -0.3324 C   0  0  0  0  0  0  0  0  0  0  0  0
   -5.4566    1.0908    0.6517 N   0  0  0  0  0  0  0  0  0  0  0  0
   -4.0841    0.6826    0.6683 C   0  0  0  0  0  0  0  0  0  0  0  0
   -3.1145    1.6129    0.8440 N   0  0  0  0  0  0  0  0  0  0  0  0
   -1.8907    1.4309    0.2908 C   0  0  0  0  0  0  0  0  0  0  0  0
   -1.6396    0.3318   -0.5224 C   0  0  0  0  0  0  0  0  0  0  0  0
   -0.4160   -0.2507   -0.8422 C   0  0  0  0  0  0  0  0  0  0  0  0
    0.9252    0.2209   -0.4595 C   0  0  0  0  0  0  0  0  0  0  0  0
    1.5509   -0.5002    0.5527 C   0  0  0  0  0  0  0  0  0  0  0  0
    2.6850    0.0501    1.1067 C   0  0  0  0  0  0  0  0  0  0  0  0
    3.5835    0.6391    0.2443 C   0  0  0  0  0  0  0  0  0  0  0  0
    5.0480    0.4325    0.4892 C   0  0  0  0  0  0  0  0  0  0  0  0
    5.8589    1.1662   -0.4549 N   0  0  0  0  0  0  0  0  0  0  0  0
    6.9410    0.3350   -0.9641 C   0  0  0  0  0  0  0  0  0  0  0  0
    8.0448    1.2774   -1.4277 C   0  0  0  0  0  0  0  0  0  0  0  0
    8.6468    1.8252   -0.2372 N   0  0  0  0  0  0  0  0  0  0  0  0
    9.3813    0.8086    0.4716 C   0  0  0  0  0  0  0  0  0  0  0  0
    7.6730    2.4612    0.6068 C   0  0  0  0  0  0  0  0  0  0  0  0
    6.2968    2.4227    0.0619 C   0  0  0  0  0  0  0  0  0  0  0  0
    3.0789    1.1249   -0.9364 C   0  0  0  0  0  0  0  0  0  0  0  0
    1.7346    0.9721   -1.2622 C   0  0  0  0  0  0  0  0  0  0  0  0
   -0.7827   -1.5225   -1.2708 C   0  0  0  0  0  0  0  0  0  0  0  0
   -2.0241   -1.8336   -0.8156 N   0  0  0  0  0  0  0  0  0  0  0  0
   -2.1551   -3.2941   -0.2601 C   0  0  1  0  0  0  0  0  0  0  0  0
   -3.1018   -2.9337    1.0333 C   0  0  0  0  0  0  0  0  0  0  0  0
   -3.3293   -4.2677    1.5872 C   0  0  0  0  0  0  0  0  0  0  0  0
   -4.3634   -5.1333    0.6459 C   0  0  2  0  0  0  0  0  0  0  0  0
   -3.2212   -5.7698   -0.1281 O   0  0  0  0  0  0  0  0  0  0  0  0
   -4.6076   -3.9499   -0.4664 C   0  0  0  0  0  0  0  0  0  0  0  0
   -3.4354   -3.6314   -1.2217 C   0  0  0  0  0  0  0  0  0  0  0  0
   -2.5265   -0.7307   -0.3514 C   0  0  0  0  0  0  0  0  0  0  0  0
   -3.7032   -0.5637    0.3004 N   0  0  0  0  0  0  0  0  0  0  0  0
  1  2  1  0
  2  3  1  0
  3  4  1  0
  4  5  1  0
  5  6  1  0
  6  7  2  0
  7  8  1  0
  8  9  2  0
  9 10  1  0
 10 11  1  0
 11 12  2  0
 12 13  1  0
 13 14  2  0
 14 15  1  0
 15 16  1  0
 16 17  1  0
 17 18  1  0
 18 19  1  0
 19 20  1  0
 19 21  1  0
 21 22  1  0
 14 23  1  0
 23 24  2  0
 10 25  2  0
 25 26  1  0
 27 26  1  6
 27 28  1  0
 28 29  1  0
 29 30  1  0
 30 31  1  6
 30 32  1  0
 32 33  1  0
 26 34  1  0
 34 35  2  0
 35  6  1  0
 34  9  1  0
 24 11  1  0
 33 27  1  0
 22 16  1  0
M  END
>  <zinc_id>  (1) 
ZINC000249857461

>  <smiles>  (1) 
CCCCNc1ncc2c(-c3ccc(CN4CCN(C)CC4)cc3)cn([C@@H]3CC[C@@H](O)CC3)c2n1

$$$$
