REMARK SMILES O=C(Nc1cccc(Br)c1)c1cccc(S(=O)(=O)N2CCCCCC2)c1
REMARK SMILES IDX 19 1 16 2 17 3 18 4 15 5 11 6 12 7 26 8 13 9 14 10 2 11 1 12
REMARK SMILES IDX 3 13 4 14 5 15 10 16 6 17 8 18 7 19 9 20 20 21 21 22 25 24
REMARK SMILES IDX 24 25 23 26 22 27
REMARK H PARENT
REMARK Flexibility Score: 80.00
ROOT
ATOM      1  N   UNL     1      -4.377  -0.323  -0.034  1.00  0.00    -0.198 NA
ENDROOT
BRANCH   1   2
ATOM      2  S   UNL     1      -3.111  -0.470  -1.180  1.00  0.00     0.243 S 
ATOM      3  O   UNL     1      -3.477   0.282  -2.436  1.00  0.00    -0.207 OA
ATOM      4  O   UNL     1      -2.907  -1.918  -1.470  1.00  0.00    -0.207 OA
BRANCH   2   5
ATOM      5  C   UNL     1      -1.681   0.272  -0.502  1.00  0.00     0.083 A 
ATOM      6  C   UNL     1       0.643   0.141   0.007  1.00  0.00     0.041 A 
ATOM      7  C   UNL     1       0.629   1.521   0.171  1.00  0.00    -0.049 A 
ATOM      8  C   UNL     1      -0.577  -0.491  -0.154  1.00  0.00    -0.029 A 
ATOM      9  C   UNL     1      -0.583   2.191   0.283  1.00  0.00    -0.060 A 
ATOM     10  C   UNL     1      -1.784   1.523   0.073  1.00  0.00    -0.042 A 
BRANCH   6  11
ATOM     11  C   UNL     1       1.906  -0.598   0.025  1.00  0.00     0.255 C 
ATOM     12  O   UNL     1       2.058  -1.675   0.654  1.00  0.00    -0.269 OA
ATOM     13  N   UNL     1       3.034  -0.014  -0.590  1.00  0.00    -0.322 N 
BRANCH  13  14
ATOM     14  C   UNL     1       4.379  -0.342  -0.258  1.00  0.00     0.042 A 
ATOM     15  C   UNL     1       4.792  -1.630   0.032  1.00  0.00    -0.038 A 
ATOM     16  C   UNL     1       5.352   0.629  -0.440  1.00  0.00    -0.024 A 
ATOM     17  C   UNL     1       6.101  -1.951  -0.248  1.00  0.00    -0.059 A 
ATOM     18  C   UNL     1       6.695   0.342  -0.523  1.00  0.00     0.020 A 
ATOM     19  C   UNL     1       7.053  -0.994  -0.568  1.00  0.00    -0.048 A 
ATOM     20  Br  UNL     1       8.017   1.701  -0.251  1.00  0.00    -0.051 Br
ENDBRANCH  13  14
ENDBRANCH   6  11
ENDBRANCH   2   5
ENDBRANCH   1   2
BRANCH   1  21
ATOM     21  C   UNL     1      -4.001  -0.856   1.245  1.00  0.00     0.014 C 
BRANCH  21  22
ATOM     22  C   UNL     1      -4.451  -0.022   2.409  1.00  0.00    -0.039 CG0
ATOM     23  G   UNL     1      -5.936   0.215   2.441  1.00  0.00     0.000 G0
ENDBRANCH  21  22
ENDBRANCH   1  21
BRANCH   1  24
ATOM     24  C   UNL     1      -4.824   1.048   0.021  1.00  0.00     0.014 C 
BRANCH  24  25
ATOM     25  C   UNL     1      -6.341   0.989   0.165  1.00  0.00    -0.039 C 
BRANCH  25  26
ATOM     26  C   UNL     1      -6.608  -0.164   1.127  1.00  0.00    -0.052 C 
BRANCH  26  27
ATOM     27  C   UNL     1      -5.936   0.215   2.441  1.00  0.00    -0.052 CG0
ATOM     28  G   UNL     1      -4.451  -0.022   2.409  1.00  0.00     0.000 G0
ENDBRANCH  26  27
ENDBRANCH  25  26
ENDBRANCH  24  25
ENDBRANCH   1  24
TORSDOF 4

