REMARK SMILES O=[N+]([O-])c1ccc2nc(COCc3nc4ccc([N+](=O)[O-])cc4[nH]3)[nH]c2c1
REMARK SMILES IDX 11 1 10 2 9 3 4 4 5 5 27 6 6 7 26 8 7 9 25 10 8 11 2 12 1 13
REMARK SMILES IDX 3 14 12 15 13 16 14 17 24 18 15 19 23 20 16 21 22 22 17 23
REMARK SMILES IDX 18 24 19 25 20 26 21 27
REMARK H PARENT
REMARK Flexibility Score: inf
ROOT
ATOM      1  O   UNL     1       0.293  -0.385   1.569  1.00  0.00    -0.366 OA
ENDROOT
BRANCH   1   2
ATOM      2  C   UNL     1      -0.422   0.729   2.028  1.00  0.00     0.105 C 
BRANCH   2   3
ATOM      3  C   UNL     1      -1.864   0.615   1.644  1.00  0.00     0.133 A 
ATOM      4  C   UNL     1      -5.755  -0.178  -0.428  1.00  0.00     0.271 A 
ATOM      5  C   UNL     1      -5.519   1.116  -0.875  1.00  0.00     0.018 A 
ATOM      6  C   UNL     1      -4.660  -0.864   0.080  1.00  0.00     0.042 A 
ATOM      7  C   UNL     1      -4.541   1.895  -0.286  1.00  0.00    -0.027 A 
ATOM      8  C   UNL     1      -3.523  -0.155   0.424  1.00  0.00     0.072 A 
ATOM      9  C   UNL     1      -3.551   1.234   0.429  1.00  0.00     0.089 A 
ATOM     10  N   UNL     1      -2.500  -0.503   1.239  1.00  0.00    -0.340 N 
ATOM     11  N   UNL     1      -2.658   1.654   1.352  1.00  0.00    -0.231 NA
BRANCH   4  12
ATOM     12  N   UNL     1      -7.070  -0.721  -0.360  1.00  0.00     0.062 N 
ATOM     13  O   UNL     1      -7.481  -1.139   0.748  1.00  0.00    -0.258 OA
ATOM     14  O   UNL     1      -8.033  -0.132  -1.162  1.00  0.00    -0.258 OA
ENDBRANCH   4  12
ENDBRANCH   2   3
ENDBRANCH   1   2
BRANCH   1  15
ATOM     15  C   UNL     1       0.154  -0.532   0.183  1.00  0.00     0.105 C 
BRANCH  15  16
ATOM     16  C   UNL     1       1.541  -0.582  -0.374  1.00  0.00     0.133 A 
ATOM     17  N   UNL     1       2.000  -0.044  -1.530  1.00  0.00    -0.231 NA
ATOM     18  N   UNL     1       2.592  -1.302   0.091  1.00  0.00    -0.340 N 
ATOM     19  C   UNL     1       3.335   0.104  -1.368  1.00  0.00     0.089 A 
ATOM     20  C   UNL     1       3.750  -0.766  -0.366  1.00  0.00     0.072 A 
ATOM     21  C   UNL     1       4.294   0.913  -1.921  1.00  0.00    -0.027 A 
ATOM     22  C   UNL     1       4.994  -0.621   0.236  1.00  0.00     0.042 A 
ATOM     23  C   UNL     1       5.566   0.989  -1.402  1.00  0.00     0.018 A 
ATOM     24  C   UNL     1       5.924   0.207  -0.334  1.00  0.00     0.271 A 
BRANCH  24  25
ATOM     25  N   UNL     1       7.297   0.013  -0.011  1.00  0.00     0.062 N 
ATOM     26  O   UNL     1       8.190   0.360  -0.813  1.00  0.00    -0.258 OA
ATOM     27  O   UNL     1       7.647  -0.522   1.210  1.00  0.00    -0.258 OA
ENDBRANCH  24  25
ENDBRANCH  15  16
ENDBRANCH   1  15
TORSDOF 6

