
     RDKit          3D

 32 36  0  0  0  0  0  0  0  0999 V2000
    2.4409    0.2393   -0.6918 O   0  0  0  0  0  0  0  0  0  0  0  0
    2.4820   -1.0086   -0.5135 C   0  0  0  0  0  0  0  0  0  0  0  0
    1.1465   -1.5415   -0.4608 N   0  0  0  0  0  0  0  0  0  0  0  0
   -0.0284   -0.7565   -0.8316 C   0  0  0  0  0  0  0  0  0  0  0  0
   -0.7442   -0.4310    0.4753 C   0  0  0  0  0  0  0  0  0  0  0  0
   -1.0800    1.0569    0.4866 C   0  0  0  0  0  0  0  0  0  0  0  0
   -2.4634    1.1222    0.0141 N   0  0  0  0  0  0  0  0  0  0  0  0
   -3.2501    0.3018    0.8577 C   0  0  0  0  0  0  0  0  0  0  0  0
   -3.6363   -1.0387    0.2514 C   0  0  0  0  0  0  0  0  0  0  0  0
   -4.3808   -0.6798   -1.0300 C   0  0  0  0  0  0  0  0  0  0  0  0
   -3.3448   -0.1200   -1.9512 C   0  0  0  0  0  0  0  0  0  0  0  0
   -2.4490    0.8835   -1.3668 C   0  0  0  0  0  0  0  0  0  0  0  0
   -5.0886   -1.7280   -1.5556 O   0  0  0  0  0  0  0  0  0  0  0  0
   -6.3173   -1.7943   -0.9190 C   0  0  0  0  0  0  0  0  0  0  0  0
   -6.5452   -0.4383   -0.3637 C   0  0  0  0  0  0  0  0  0  0  0  0
   -7.4911    0.1756    0.4121 C   0  0  0  0  0  0  0  0  0  0  0  0
   -7.3778    1.5138    0.7708 C   0  0  0  0  0  0  0  0  0  0  0  0
   -6.3247    2.2524    0.2742 C   0  0  0  0  0  0  0  0  0  0  0  0
   -5.5719    1.6843   -0.7478 C   0  0  0  0  0  0  0  0  0  0  0  0
   -5.4133    0.3069   -0.6684 C   0  0  0  0  0  0  0  0  0  0  0  0
    3.2635   -1.1566    0.9253 C   0  0  1  0  0  0  0  0  0  0  0  0
    3.0199   -2.8029    0.9859 C   0  0  0  0  0  0  0  0  0  0  0  0
    3.7563   -3.3121   -0.1565 C   0  0  0  0  0  0  0  0  0  0  0  0
    4.4062   -2.1858   -0.8360 C   0  0  0  0  0  0  0  0  0  0  0  0
    4.7050   -1.2965    0.2454 N   0  0  0  0  0  0  0  0  0  0  0  0
    4.9099   -0.0466   -0.4247 C   0  0  0  0  0  0  0  0  0  0  0  0
    5.8414    0.8938    0.1635 C   0  0  0  0  0  0  0  0  0  0  0  0
    6.8669    0.6182    1.0290 C   0  0  0  0  0  0  0  0  0  0  0  0
    7.9434    1.4882    1.0732 C   0  0  0  0  0  0  0  0  0  0  0  0
    8.0108    2.6406    0.3018 C   0  0  0  0  0  0  0  0  0  0  0  0
    6.9134    2.9898   -0.4453 C   0  0  0  0  0  0  0  0  0  0  0  0
    5.8012    2.1699   -0.3931 C   0  0  0  0  0  0  0  0  0  0  0  0
  1  2  2  0
  2  3  1  0
  3  4  1  0
  4  5  1  0
  5  6  1  0
  6  7  1  0
  7  8  1  0
  8  9  1  0
  9 10  1  0
 10 11  1  0
 11 12  1  0
 10 13  1  0
 13 14  1  0
 14 15  1  0
 15 16  2  0
 16 17  1  0
 17 18  2  0
 18 19  1  0
 19 20  2  0
 21  2  1  6
 21 22  1  0
 22 23  1  0
 23 24  1  0
 24 25  1  0
 25 26  1  0
 26 27  1  0
 27 28  2  0
 28 29  1  0
 29 30  2  0
 30 31  1  0
 31 32  2  0
 12  7  1  0
 20 15  1  0
 25 21  1  0
 32 27  1  0
 20 10  1  0
M  END
>  <zinc_id>  (1) 
ZINC000013679981

>  <smiles>  (1) 
O=C(NCCCN1CCC2(CC1)OCc1ccccc12)[C@H]1CCCN1Cc1ccccc1

$$$$
