
     RDKit          3D

 11 12  0  0  0  0  0  0  0  0999 V2000
    2.9922   -1.0080    0.5092 N   0  0  0  0  0  0  0  0  0  0  0  0
    1.8230   -0.5536   -0.1836 C   0  0  0  0  0  0  0  0  0  0  0  0
    0.7625   -1.3951   -0.2392 N   0  0  0  0  0  0  0  0  0  0  0  0
   -0.5065   -0.9316   -0.1538 C   0  0  0  0  0  0  0  0  0  0  0  0
   -1.7323   -1.5036   -0.1586 N   0  0  0  0  0  0  0  0  0  0  0  0
   -2.6433   -0.5499    0.1449 C   0  0  0  0  0  0  0  0  0  0  0  0
   -1.9325    0.5417    0.4982 N   0  0  0  0  0  0  0  0  0  0  0  0
   -0.7558    0.4358   -0.1698 C   0  0  0  0  0  0  0  0  0  0  0  0
    0.3339    1.2838   -0.0053 C   0  0  0  0  0  0  0  0  0  0  0  0
    0.0739    2.9017   -0.1148 S   0  0  0  0  0  0  0  0  0  0  0  0
    1.5850    0.7789   -0.1271 N   0  0  0  0  0  0  0  0  0  0  0  0
  1  2  1  0
  2  3  2  0
  3  4  1  0
  4  5  1  0
  5  6  2  0
  6  7  1  0
  7  8  1  0
  8  9  1  0
  9 10  2  0
  9 11  1  0
 11  2  1  0
  8  4  2  0
M  END
>  <zinc_id>  (1) 
ZINC000006382803

>  <smiles>  (1) 
Nc1nc2nc[nH]c2c(=S)[nH]1

$$$$
