
     RDKit          3D

 38 42  0  0  0  0  0  0  0  0999 V2000
   -8.9095    2.4008   -1.1257 C   0  0  0  0  0  0  0  0  0  0  0  0
   -7.7693    1.6276   -0.5453 C   0  0  0  0  0  0  0  0  0  0  0  0
   -6.9277    2.0769    0.4160 N   0  0  0  0  0  0  0  0  0  0  0  0
   -6.5579    1.0759    1.1556 O   0  0  0  0  0  0  0  0  0  0  0  0
   -6.9929   -0.0555    0.6861 C   0  0  0  0  0  0  0  0  0  0  0  0
   -6.5007   -1.3289    1.0509 N   0  0  0  0  0  0  0  0  0  0  0  0
   -4.9345   -1.8673    0.5830 S   0  0  0  0  0  0  0  0  0  0  0  0
   -4.4690   -2.8897    1.5954 O   0  0  0  0  0  0  0  0  0  0  0  0
   -5.0806   -2.5992   -0.7153 O   0  0  0  0  0  0  0  0  0  0  0  0
   -3.7988   -0.5327    0.4575 C   0  0  0  0  0  0  0  0  0  0  0  0
   -2.8034   -0.3489    1.4059 C   0  0  0  0  0  0  0  0  0  0  0  0
   -1.5499    0.1319    1.0491 C   0  0  0  0  0  0  0  0  0  0  0  0
   -1.2431    0.4091   -0.2774 C   0  0  0  0  0  0  0  0  0  0  0  0
    0.0433    0.1057   -0.8307 N   0  0  0  0  0  0  0  0  0  0  0  0
    1.1450    1.0109   -0.7065 C   0  0  0  0  0  0  0  0  0  0  0  0
    0.8653    2.2323   -0.7394 O   0  0  0  0  0  0  0  0  0  0  0  0
    2.5194    0.5637   -0.7916 C   0  0  0  0  0  0  0  0  0  0  0  0
    3.5289    1.2933   -1.4083 C   0  0  0  0  0  0  0  0  0  0  0  0
    4.8220    0.7835   -1.4421 C   0  0  0  0  0  0  0  0  0  0  0  0
    6.0021    1.6477   -1.2879 C   0  0  0  0  0  0  0  0  0  0  0  0
    7.2010    1.0796   -1.7048 C   0  0  0  0  0  0  0  0  0  0  0  0
    8.4281    1.4973   -1.2041 C   0  0  0  0  0  0  0  0  0  0  0  0
    8.4159    1.9594    0.1023 C   0  0  0  0  0  0  0  0  0  0  0  0
    7.2437    2.5833    0.5026 C   0  0  0  0  0  0  0  0  0  0  0  0
    6.1195    2.5115   -0.2506 N   0  0  0  0  0  0  0  0  0  0  0  0
    4.9010   -0.5583   -1.2558 N   0  0  0  0  0  0  0  0  0  0  0  0
    4.0094   -1.2562   -0.5491 C   0  0  0  0  0  0  0  0  0  0  0  0
    4.3008   -2.4560    0.0883 C   0  0  0  0  0  0  0  0  0  0  0  0
    5.5040   -3.1863   -0.4134 C   0  0  0  0  0  0  0  0  0  0  0  0
    3.7613   -2.7654    1.3298 C   0  0  0  0  0  0  0  0  0  0  0  0
    2.7752   -1.9501    1.8713 C   0  0  0  0  0  0  0  0  0  0  0  0
    2.6940   -1.8006    3.3570 C   0  0  0  0  0  0  0  0  0  0  0  0
    2.2121   -1.0020    1.0253 C   0  0  0  0  0  0  0  0  0  0  0  0
    2.8238   -0.6400   -0.1664 C   0  0  0  0  0  0  0  0  0  0  0  0
   -2.3382    0.5938   -1.1127 C   0  0  0  0  0  0  0  0  0  0  0  0
   -3.5806    0.0709   -0.7740 C   0  0  0  0  0  0  0  0  0  0  0  0
   -7.6802    0.2432   -0.4686 C   0  0  0  0  0  0  0  0  0  0  0  0
   -8.1797   -0.6613   -1.5270 C   0  0  0  0  0  0  0  0  0  0  0  0
  1  2  1  0
  2  3  2  0
  3  4  1  0
  4  5  1  0
  5  6  1  0
  6  7  1  0
  7  8  2  0
  7  9  2  0
  7 10  1  0
 10 11  2  0
 11 12  1  0
 12 13  2  0
 13 14  1  0
 14 15  1  0
 15 16  2  0
 15 17  1  0
 17 18  2  0
 18 19  1  0
 19 20  1  0
 20 21  2  0
 21 22  1  0
 22 23  2  0
 23 24  1  0
 24 25  2  0
 19 26  2  0
 26 27  1  0
 27 28  2  0
 28 29  1  0
 28 30  1  0
 30 31  2  0
 31 32  1  0
 31 33  1  0
 33 34  2  0
 13 35  1  0
 35 36  2  0
  5 37  2  0
 37 38  1  0
 37  2  1  0
 36 10  1  0
 34 17  1  0
 25 20  1  0
 34 27  1  0
M  END
>  <zinc_id>  (1) 
ZINC000001073995

>  <smiles>  (1) 
Cc1cc(C)c2nc(-c3ccccn3)cc(C(=O)Nc3ccc(S(=O)(=O)Nc4onc(C)c4C)cc3)c2c1

$$$$
