
     RDKit          3D

 15 16  0  0  0  0  0  0  0  0999 V2000
    2.7376    2.5819   -0.9481 C   0  0  0  0  0  0  0  0  0  0  0  0
    3.1073    1.6988    0.2322 C   0  0  0  0  0  0  0  0  0  0  0  0
    2.6444    0.3771    0.0629 O   0  0  0  0  0  0  0  0  0  0  0  0
    1.2750    0.1329    0.2118 C   0  0  0  0  0  0  0  0  0  0  0  0
    0.3301    1.0178    0.6056 N   0  0  0  0  0  0  0  0  0  0  0  0
   -0.8452    0.5202    0.1637 C   0  0  0  0  0  0  0  0  0  0  0  0
   -0.5917   -0.7231   -0.4031 C   0  0  0  0  0  0  0  0  0  0  0  0
   -1.5787   -1.3705   -1.0447 N   0  0  0  0  0  0  0  0  0  0  0  0
   -2.8532   -0.9413   -0.9031 C   0  0  0  0  0  0  0  0  0  0  0  0
   -3.1485    0.2185   -0.2681 N   0  0  0  0  0  0  0  0  0  0  0  0
   -2.1660    0.9053    0.3621 C   0  0  0  0  0  0  0  0  0  0  0  0
   -2.4727    2.0759    1.1277 N   0  0  0  0  0  0  0  0  0  0  0  0
    0.6395   -1.0553    0.0599 N   0  0  0  0  0  0  0  0  0  0  0  0
    1.3175   -2.3118   -0.2403 C   0  0  0  0  0  0  0  0  0  0  0  0
    1.6046   -3.1264    0.9812 C   0  0  0  0  0  0  0  0  0  0  0  0
  1  2  1  0
  2  3  1  0
  3  4  1  0
  4  5  2  0
  5  6  1  0
  6  7  2  0
  7  8  1  0
  8  9  2  0
  9 10  1  0
 10 11  2  0
 11 12  1  0
  7 13  1  0
 13 14  1  0
 14 15  1  0
 13  4  1  0
 11  6  1  0
M  END
>  <zinc_id>  (1) 
ZINC000036448739

>  <smiles>  (1) 
CCOc1nc2c(N)ncnc2n1CC

$$$$
