
     RDKit          3D

 28 30  0  0  0  0  0  0  0  0999 V2000
   -5.6688   -2.3755   -1.2165 C   0  0  0  0  0  0  0  0  0  0  0  0
   -4.5798   -1.4796   -1.3818 C   0  0  0  0  0  0  0  0  0  0  0  0
   -4.0836   -1.3518   -2.8026 C   0  0  0  0  0  0  0  0  0  0  0  0
   -3.3692   -2.2942   -0.5839 C   0  0  2  0  0  0  0  0  0  0  0  0
   -3.6554   -1.4306    0.8080 C   0  0  0  0  0  0  0  0  0  0  0  0
   -2.8876   -2.2000    1.6990 O   0  0  0  0  0  0  0  0  0  0  0  0
   -2.2737   -1.2772   -1.1191 N   0  0  0  0  0  0  0  0  0  0  0  0
   -1.4409   -0.6541   -0.1996 C   0  0  0  0  0  0  0  0  0  0  0  0
   -1.6628    0.6671    0.0120 N   0  0  0  0  0  0  0  0  0  0  0  0
   -0.6853    1.5326    0.3171 C   0  0  0  0  0  0  0  0  0  0  0  0
    0.4421    1.0159    0.8987 C   0  0  0  0  0  0  0  0  0  0  0  0
    1.0640    2.0728    1.4761 N   0  0  0  0  0  0  0  0  0  0  0  0
    0.6494    3.1462    0.7703 C   0  0  0  0  0  0  0  0  0  0  0  0
   -0.5822    2.8845    0.3042 N   0  0  0  0  0  0  0  0  0  0  0  0
   -1.6572    3.8236    0.0526 C   0  0  0  0  0  0  0  0  0  0  0  0
   -1.0724    5.2117   -0.1044 C   0  0  0  0  0  0  0  0  0  0  0  0
   -2.5304    3.8472    1.2971 C   0  0  0  0  0  0  0  0  0  0  0  0
    0.4931   -0.3591    1.0942 C   0  0  0  0  0  0  0  0  0  0  0  0
    1.6740   -0.8968    1.7010 N   0  0  0  0  0  0  0  0  0  0  0  0
    2.8505   -1.0339    0.8978 C   0  0  0  0  0  0  0  0  0  0  0  0
    3.3718   -2.2529    0.5284 C   0  0  0  0  0  0  0  0  0  0  0  0
    4.4067   -2.3324   -0.3944 C   0  0  0  0  0  0  0  0  0  0  0  0
    5.4078   -3.3529   -0.3217 N   0  0  0  0  0  0  0  0  0  0  0  0
    4.5391   -1.2471   -1.2501 C   0  0  0  0  0  0  0  0  0  0  0  0
    4.0708    0.0105   -0.9211 C   0  0  0  0  0  0  0  0  0  0  0  0
    4.2204    1.3652   -2.0351 Cl  0  0  0  0  0  0  0  0  0  0  0  0
    3.2405    0.0909    0.1830 C   0  0  0  0  0  0  0  0  0  0  0  0
   -0.2810   -1.1302    0.2908 N   0  0  0  0  0  0  0  0  0  0  0  0
  1  2  1  0
  2  3  1  0
  4  2  1  6
  4  5  1  0
  5  6  1  0
  4  7  1  0
  7  8  1  0
  8  9  2  0
  9 10  1  0
 10 11  2  0
 11 12  1  0
 12 13  2  0
 13 14  1  0
 14 15  1  0
 15 16  1  0
 15 17  1  0
 11 18  1  0
 18 19  1  0
 19 20  1  0
 20 21  2  0
 21 22  1  0
 22 23  1  0
 22 24  2  0
 24 25  1  0
 25 26  1  0
 25 27  2  0
 18 28  2  0
 28  8  1  0
 14 10  1  0
 27 20  1  0
M  END
>  <zinc_id>  (1) 
ZINC000000582597

>  <smiles>  (1) 
CC(C)[C@H](CO)Nc1nc(Nc2cc(N)cc(Cl)c2)c2ncn(C(C)C)c2n1

$$$$
