REMARK SMILES CC(C)c1cc(-c2n[nH]c(=O)n2-c2ccc3c(ccn3C)c2)c(O)cc1O
REMARK SMILES IDX 4 1 5 2 6 3 23 4 24 5 25 6 26 7 27 8 2 9 1 10 3 11 7 12 8 13
REMARK SMILES IDX 12 14 9 15 10 16 11 17 13 18 14 19 22 20 15 21 17 22 16 23
REMARK SMILES IDX 18 24 20 25 19 26 21 27
REMARK H PARENT
REMARK Flexibility Score: inf
ROOT
ATOM      1  C   UNL     1      -3.025   0.810  -0.192  1.00  0.00    -0.003 A 
ATOM      2  C   UNL     1      -1.837   0.109  -0.338  1.00  0.00    -0.040 A 
ATOM      3  C   UNL     1      -1.763  -1.255  -0.177  1.00  0.00     0.062 A 
ATOM      4  C   UNL     1      -2.956  -1.897   0.133  1.00  0.00     0.130 A 
ATOM      5  O   UNL     1      -2.937  -3.289   0.041  1.00  0.00    -0.507 OA
ATOM      6  C   UNL     1      -4.098  -1.196   0.492  1.00  0.00     0.023 A 
ATOM      7  C   UNL     1      -4.090   0.186   0.419  1.00  0.00     0.122 A 
ATOM      8  O   UNL     1      -5.035   0.949   1.105  1.00  0.00    -0.508 OA
ENDROOT
BRANCH   1   9
ATOM      9  C   UNL     1      -3.199   2.171  -0.741  1.00  0.00    -0.018 C 
ATOM     10  C   UNL     1      -2.880   3.256   0.259  1.00  0.00    -0.059 C 
ATOM     11  C   UNL     1      -4.607   2.394  -1.281  1.00  0.00    -0.059 C 
ENDBRANCH   1   9
BRANCH   3  12
ATOM     12  C   UNL     1      -0.505  -1.881   0.237  1.00  0.00     0.172 A 
ATOM     13  N   UNL     1      -0.352  -3.167   0.632  1.00  0.00    -0.152 NA
ATOM     14  N   UNL     1       0.586  -1.228   0.646  1.00  0.00    -0.243 N 
ATOM     15  N   UNL     1       0.767  -3.274   1.344  1.00  0.00    -0.226 N 
ATOM     16  C   UNL     1       1.211  -2.022   1.547  1.00  0.00     0.348 A 
ATOM     17  O   UNL     1       2.297  -1.730   2.133  1.00  0.00    -0.246 OA
BRANCH  14  18
ATOM     18  C   UNL     1       1.087  -0.047   0.006  1.00  0.00     0.053 A 
ATOM     19  C   UNL     1       1.562  -0.075  -1.302  1.00  0.00    -0.036 A 
ATOM     20  C   UNL     1       1.556   1.038   0.741  1.00  0.00    -0.028 A 
ATOM     21  C   UNL     1       2.749   0.562  -1.644  1.00  0.00    -0.036 A 
ATOM     22  C   UNL     1       2.744   1.685   0.410  1.00  0.00     0.002 A 
ATOM     23  C   UNL     1       3.477   1.278  -0.700  1.00  0.00     0.048 A 
ATOM     24  C   UNL     1       3.642   2.476   1.117  1.00  0.00    -0.036 A 
ATOM     25  N   UNL     1       4.795   1.354  -0.387  1.00  0.00    -0.351 N 
ATOM     26  C   UNL     1       4.926   2.114   0.727  1.00  0.00     0.004 A 
ATOM     27  C   UNL     1       5.886   0.679  -1.087  1.00  0.00     0.011 C 
ENDBRANCH  14  18
ENDBRANCH   3  12
TORSDOF 3

