REMARK SMILES CC#CC(=O)N1CCC[C@H]1c1nc(-c2ccc(C(=O)Nc3ccccn3)cc2)c2c(N)nccn12
REMARK SMILES IDX 11 1 12 2 13 3 29 4 30 5 31 6 32 7 33 8 34 9 35 10 10 11
REMARK SMILES IDX 6 12 7 13 8 14 9 15 4 16 5 17 3 18 1 19 2 20 14 21 15 22
REMARK SMILES IDX 28 23 16 24 27 25 17 26 18 27 19 28 20 29 21 30 22 31 26 32
REMARK SMILES IDX 23 33 25 34 24 35
REMARK H PARENT
REMARK Flexibility Score: inf
ROOT
ATOM      1  C   UNL     1      -2.618  -0.850   0.693  1.00  0.00     0.137 A 
ATOM      2  N   UNL     1      -1.849  -1.896   0.581  1.00  0.00    -0.230 NA
ATOM      3  C   UNL     1      -0.654  -1.368   0.200  1.00  0.00     0.100 A 
ATOM      4  C   UNL     1      -0.647  -0.037   0.615  1.00  0.00     0.116 A 
ATOM      5  C   UNL     1       0.111   1.075   0.260  1.00  0.00     0.150 A 
ATOM      6  N   UNL     1       1.064   0.949  -0.804  1.00  0.00    -0.382 N 
ATOM      7  N   UNL     1      -0.322   2.320   0.581  1.00  0.00    -0.236 NA
ATOM      8  C   UNL     1      -1.397   2.479   1.386  1.00  0.00     0.046 A 
ATOM      9  C   UNL     1      -2.089   1.340   1.779  1.00  0.00     0.029 A 
ATOM     10  N   UNL     1      -1.871   0.155   1.172  1.00  0.00    -0.297 N 
ENDROOT
BRANCH   1  11
ATOM     11  C   UNL     1      -4.216  -0.884   1.002  1.00  0.00     0.091 C 
ATOM     12  N   UNL     1      -4.484   0.372   0.044  1.00  0.00    -0.322 N 
ATOM     13  C   UNL     1      -3.692   0.046  -1.133  1.00  0.00     0.022 C 
ATOM     14  C   UNL     1      -4.443  -1.218  -1.430  1.00  0.00    -0.033 C 
ATOM     15  C   UNL     1      -4.526  -1.992  -0.205  1.00  0.00    -0.024 C 
BRANCH  12  16
ATOM     16  C   UNL     1      -5.751   1.008   0.086  1.00  0.00     0.299 C 
ATOM     17  O   UNL     1      -6.464   0.842  -0.951  1.00  0.00    -0.259 OA
BRANCH  16  18
ATOM     18  C   UNL     1      -5.799   2.326   0.681  1.00  0.00    -0.005 C 
ATOM     19  C   UNL     1      -6.082   4.561   1.785  1.00  0.00    -0.002 C 
ATOM     20  C   UNL     1      -5.894   3.445   1.146  1.00  0.00    -0.096 C 
ENDBRANCH  16  18
ENDBRANCH  12  16
ENDBRANCH   1  11
BRANCH   3  21
ATOM     21  C   UNL     1       0.584  -2.018  -0.148  1.00  0.00     0.003 A 
ATOM     22  C   UNL     1       1.056  -2.181  -1.444  1.00  0.00    -0.052 A 
ATOM     23  C   UNL     1       1.139  -2.914   0.761  1.00  0.00    -0.052 A 
ATOM     24  C   UNL     1       2.412  -2.468  -1.582  1.00  0.00    -0.049 A 
ATOM     25  C   UNL     1       2.483  -3.235   0.604  1.00  0.00    -0.049 A 
ATOM     26  C   UNL     1       3.196  -2.701  -0.462  1.00  0.00     0.040 A 
BRANCH  26  27
ATOM     27  C   UNL     1       4.544  -2.134  -0.307  1.00  0.00     0.256 C 
ATOM     28  O   UNL     1       5.207  -2.656   0.611  1.00  0.00    -0.269 OA
ATOM     29  N   UNL     1       4.871  -0.808  -0.684  1.00  0.00    -0.307 N 
BRANCH  29  30
ATOM     30  C   UNL     1       5.501   0.130   0.198  1.00  0.00     0.132 A 
ATOM     31  C   UNL     1       4.737   1.166   0.725  1.00  0.00    -0.019 A 
ATOM     32  N   UNL     1       6.830   0.394   0.133  1.00  0.00    -0.239 NA
ATOM     33  C   UNL     1       5.197   2.450   0.804  1.00  0.00    -0.057 A 
ATOM     34  C   UNL     1       7.340   1.597   0.439  1.00  0.00     0.029 A 
ATOM     35  C   UNL     1       6.525   2.706   0.539  1.00  0.00    -0.044 A 
ENDBRANCH  29  30
ENDBRANCH  26  27
ENDBRANCH   3  21
TORSDOF 6

