
     RDKit          3D

 30 32  0  0  0  0  0  0  0  0999 V2000
    5.3093    1.3027    1.7566 O   0  0  0  0  0  0  0  0  0  0  0  0
    5.4482    0.3316    0.9526 C   0  0  0  0  0  0  0  0  0  0  0  0
    6.3775    0.5242   -0.1078 N   0  0  0  0  0  0  0  0  0  0  0  0
    6.7790    1.8164   -0.6006 C   0  0  0  0  0  0  0  0  0  0  0  0
    8.2765    1.9842   -0.6567 C   0  0  0  0  0  0  0  0  0  0  0  0
    8.9336    1.3018    0.3613 O   0  0  0  0  0  0  0  0  0  0  0  0
    4.3472   -0.6363    0.8731 C   0  0  0  0  0  0  0  0  0  0  0  0
    4.6913   -1.8940    0.3969 C   0  0  0  0  0  0  0  0  0  0  0  0
    3.7899   -2.7214   -0.2403 C   0  0  0  0  0  0  0  0  0  0  0  0
    2.5609   -2.2113   -0.5829 C   0  0  0  0  0  0  0  0  0  0  0  0
    2.1687   -0.9565   -0.1445 C   0  0  0  0  0  0  0  0  0  0  0  0
    0.7341   -0.6711   -0.2013 C   0  0  0  0  0  0  0  0  0  0  0  0
   -0.2237   -1.6740   -0.2272 C   0  0  0  0  0  0  0  0  0  0  0  0
   -1.4833   -1.3367    0.1946 C   0  0  0  0  0  0  0  0  0  0  0  0
   -2.4718   -2.2960    0.5691 N   0  0  0  0  0  0  0  0  0  0  0  0
   -3.8412   -1.8819    0.6412 C   0  0  0  0  0  0  0  0  0  0  0  0
   -4.2499   -0.9104    1.5471 C   0  0  0  0  0  0  0  0  0  0  0  0
   -5.2683   -0.0285    1.2069 C   0  0  0  0  0  0  0  0  0  0  0  0
   -5.7906    0.0071   -0.0802 C   0  0  0  0  0  0  0  0  0  0  0  0
   -6.1173    1.2044   -0.7159 O   0  0  0  0  0  0  0  0  0  0  0  0
   -5.3227    2.3625   -0.6565 C   0  0  0  0  0  0  0  0  0  0  0  0
   -4.0527    2.1048   -0.1505 F   0  0  0  0  0  0  0  0  0  0  0  0
   -5.8597    3.3516    0.1375 F   0  0  0  0  0  0  0  0  0  0  0  0
   -5.1142    2.9133   -1.9176 F   0  0  0  0  0  0  0  0  0  0  0  0
   -5.6184   -1.1565   -0.8206 C   0  0  0  0  0  0  0  0  0  0  0  0
   -4.7423   -2.1429   -0.3841 C   0  0  0  0  0  0  0  0  0  0  0  0
   -1.7776   -0.0190    0.2891 N   0  0  0  0  0  0  0  0  0  0  0  0
   -0.9009    0.9557    0.0381 C   0  0  0  0  0  0  0  0  0  0  0  0
    0.3765    0.6160   -0.1503 N   0  0  0  0  0  0  0  0  0  0  0  0
    3.0421   -0.2401    0.6436 C   0  0  0  0  0  0  0  0  0  0  0  0
  1  2  2  0
  2  3  1  0
  3  4  1  0
  4  5  1  0
  5  6  1  0
  2  7  1  0
  7  8  2  0
  8  9  1  0
  9 10  2  0
 10 11  1  0
 11 12  1  0
 12 13  2  0
 13 14  1  0
 14 15  1  0
 15 16  1  0
 16 17  2  0
 17 18  1  0
 18 19  2  0
 19 20  1  0
 20 21  1  0
 21 22  1  0
 21 23  1  0
 21 24  1  0
 19 25  1  0
 25 26  2  0
 14 27  2  0
 27 28  1  0
 28 29  2  0
 11 30  2  0
 30  7  1  0
 29 12  1  0
 26 16  1  0
M  END
>  <zinc_id>  (1) 
ZINC000064539753

>  <smiles>  (1) 
O=C(NCCO)c1cccc(-c2cc(Nc3ccc(OC(F)(F)F)cc3)ncn2)c1

$$$$
