
     RDKit          3D

 16 17  0  0  0  0  0  0  0  0999 V2000
   -2.8447    1.8776   -0.3134 C   0  0  0  0  0  0  0  0  0  0  0  0
   -4.1751    1.1726   -0.1016 C   0  0  0  0  0  0  0  0  0  0  0  0
   -4.0228   -0.1978   -0.4663 O   0  0  0  0  0  0  0  0  0  0  0  0
   -2.8166   -0.8752   -0.2552 C   0  0  0  0  0  0  0  0  0  0  0  0
   -2.4047   -0.9136    1.0727 C   0  0  0  0  0  0  0  0  0  0  0  0
   -1.0898   -1.1088    1.4016 C   0  0  0  0  0  0  0  0  0  0  0  0
   -0.0946   -0.7403    0.5004 C   0  0  0  0  0  0  0  0  0  0  0  0
    1.2182   -0.8961    0.6534 N   0  0  0  0  0  0  0  0  0  0  0  0
    1.9562   -0.0818   -0.1040 C   0  0  0  0  0  0  0  0  0  0  0  0
    3.5148    0.6668    0.2236 S   0  0  0  0  0  0  0  0  0  0  0  0
    4.8091   -0.2142   -0.4812 N   0  0  0  0  0  0  0  0  0  0  0  0
    3.5225    2.0899   -0.2909 O   0  0  0  0  0  0  0  0  0  0  0  0
    3.7302    0.7598    1.6961 O   0  0  0  0  0  0  0  0  0  0  0  0
    0.9550    0.0231   -1.4973 S   0  0  0  0  0  0  0  0  0  0  0  0
   -0.4623   -0.6972   -0.8398 C   0  0  0  0  0  0  0  0  0  0  0  0
   -1.7954   -0.8650   -1.1981 C   0  0  0  0  0  0  0  0  0  0  0  0
  1  2  1  0
  2  3  1  0
  3  4  1  0
  4  5  2  0
  5  6  1  0
  6  7  2  0
  7  8  1  0
  8  9  2  0
  9 10  1  0
 10 11  1  0
 10 12  2  0
 10 13  2  0
  9 14  1  0
 14 15  1  0
 15 16  2  0
 16  4  1  0
 15  7  1  0
M  END
>  <zinc_id>  (1) 
ZINC000000056721

>  <smiles>  (1) 
CCOc1ccc2nc(S(N)(=O)=O)sc2c1

$$$$
