
     RDKit          3D

 30 32  0  0  0  0  0  0  0  0999 V2000
   -4.3675    4.0723    0.8079 C   0  0  0  0  0  0  0  0  0  0  0  0
   -3.6714    3.4987    0.1069 C   0  0  0  0  0  0  0  0  0  0  0  0
   -4.3689    2.1596   -0.1555 C   0  0  0  0  0  0  0  0  0  0  0  0
   -5.7160    2.2525    0.5808 C   0  0  0  0  0  0  0  0  0  0  0  0
   -4.7659    2.0047   -1.6295 C   0  0  0  0  0  0  0  0  0  0  0  0
   -3.5540    1.0251    0.3366 C   0  0  0  0  0  0  0  0  0  0  0  0
   -4.1777    0.2858    1.1761 O   0  0  0  0  0  0  0  0  0  0  0  0
   -2.3523    0.5804   -0.2483 O   0  0  0  0  0  0  0  0  0  0  0  0
   -2.2571   -0.8711    0.2551 C   0  0  1  0  0  0  0  0  0  0  0  0
   -2.0311   -1.6514   -1.1787 C   0  0  0  0  0  0  0  0  0  0  0  0
   -2.8733   -2.7916   -0.3258 C   0  0  1  0  0  0  0  0  0  0  0  0
   -2.5634   -3.9873   -1.3911 C   0  0  0  0  0  0  0  0  0  0  0  0
   -1.6724   -3.2089    0.6398 C   0  0  0  0  0  0  0  0  0  0  0  0
   -0.9477   -2.3711    1.2704 C   0  0  0  0  0  0  0  0  0  0  0  0
    0.2876   -2.6935    2.0059 C   0  0  0  0  0  0  0  0  0  0  0  0
    1.3739   -2.3128    1.3021 C   0  0  0  0  0  0  0  0  0  0  0  0
    0.8505   -2.7311   -0.1596 C   0  0  2  0  0  0  0  0  0  0  0  0
    2.3165   -2.5518   -0.8362 C   0  0  0  0  0  0  0  0  0  0  0  0
    0.1920   -1.2344   -0.6368 C   0  0  2  0  0  0  0  0  0  0  0  0
    1.3838   -0.3875   -0.0614 C   0  0  0  0  0  0  0  0  0  0  0  0
    2.4568    0.1580   -0.6964 C   0  0  0  0  0  0  0  0  0  0  0  0
    3.1324    0.4729    0.7917 C   0  0  2  0  0  0  0  0  0  0  0  0
    3.3318    2.0733    0.5113 C   0  0  0  0  0  0  0  0  0  0  0  0
    4.2326    2.1040   -0.8568 C   0  0  1  0  0  0  0  0  0  0  0  0
    4.1702    3.6220   -0.9086 O   0  0  0  0  0  0  0  0  0  0  0  0
    5.6378    2.1424    0.0110 C   0  0  0  0  0  0  0  0  0  0  0  0
    5.5377    0.8799    0.8088 C   0  0  0  0  0  0  0  0  0  0  0  0
    6.5251    0.3105    1.3308 O   0  0  0  0  0  0  0  0  0  0  0  0
    4.5322    0.0358    0.3350 O   0  0  0  0  0  0  0  0  0  0  0  0
   -0.6421   -0.8856    0.7852 C   0  0  1  0  0  0  0  0  0  0  0  0
  1  2  1  0
  2  3  1  0
  3  4  1  0
  3  5  1  0
  3  6  1  0
  6  7  2  0
  6  8  1  0
  9  8  1  6
  9 10  1  0
 10 11  1  0
 11 12  1  6
 11 13  1  0
 13 14  2  0
 14 15  1  0
 15 16  2  0
 16 17  1  0
 17 18  1  6
 17 19  1  0
 19 20  1  1
 20 21  1  0
 22 21  1  6
 22 23  1  0
 23 24  1  0
 24 25  1  1
 24 26  1  0
 26 27  1  0
 27 28  2  0
 27 29  1  0
 19 30  1  0
 30  9  1  0
 30 14  1  1
 29 22  1  0
M  END
>  <zinc_id>  (1) 
ZINC000003780893

>  <smiles>  (1) 
CCC(C)(C)C(=O)O[C@H]1C[C@@H](C)C=C2C=C[C@H](C)[C@H](CC[C@@H]3C[C@@H](O)CC(=O)O3)[C@H]21

$$$$
