
     RDKit          3D

 33 37  0  0  0  0  0  0  0  0999 V2000
   -2.6107    5.4995    1.9856 C   0  0  0  0  0  0  0  0  0  0  0  0
   -2.9435    4.0566    1.8383 C   0  0  0  0  0  0  0  0  0  0  0  0
   -4.2925    3.7287    1.8468 C   0  0  0  0  0  0  0  0  0  0  0  0
   -4.6804    2.4185    1.5950 C   0  0  0  0  0  0  0  0  0  0  0  0
   -3.7193    1.5984    1.0170 C   0  0  0  0  0  0  0  0  0  0  0  0
   -2.3597    1.8185    1.1998 C   0  0  0  0  0  0  0  0  0  0  0  0
   -1.5213    0.7157    1.3874 O   0  0  0  0  0  0  0  0  0  0  0  0
   -1.6685   -0.3669    0.5240 C   0  0  0  0  0  0  0  0  0  0  0  0
   -2.7644   -1.1244    0.4594 N   0  0  0  0  0  0  0  0  0  0  0  0
   -2.7772   -2.2095   -0.3515 C   0  0  0  0  0  0  0  0  0  0  0  0
   -3.9675   -2.8993   -0.5033 C   0  0  0  0  0  0  0  0  0  0  0  0
   -4.9487   -2.8948    0.6142 C   0  0  0  0  0  0  0  0  0  0  0  0
   -4.0877   -3.7556   -1.5773 C   0  0  0  0  0  0  0  0  0  0  0  0
   -2.9426   -4.2822   -2.1602 C   0  0  0  0  0  0  0  0  0  0  0  0
   -1.7454   -3.6409   -1.8752 C   0  0  0  0  0  0  0  0  0  0  0  0
   -1.7398   -2.4917   -1.1744 N   0  0  0  0  0  0  0  0  0  0  0  0
   -0.5810   -1.7964   -1.0801 C   0  0  0  0  0  0  0  0  0  0  0  0
    0.4709   -2.3034   -1.5728 O   0  0  0  0  0  0  0  0  0  0  0  0
   -0.5360   -0.8241   -0.0984 C   0  0  0  0  0  0  0  0  0  0  0  0
    0.7706   -0.2976    0.2663 C   0  0  0  0  0  0  0  0  0  0  0  0
    1.4183    0.4877   -0.5652 C   0  0  0  0  0  0  0  0  0  0  0  0
    0.7859    1.1022   -1.6935 C   0  0  0  0  0  0  0  0  0  0  0  0
    0.2247    1.2740   -2.6959 N   0  0  0  0  0  0  0  0  0  0  0  0
    2.8813    0.5129   -0.4273 C   0  0  0  0  0  0  0  0  0  0  0  0
    3.6079    0.4211    0.7145 N   0  0  0  0  0  0  0  0  0  0  0  0
    4.8706    0.0300    0.4590 C   0  0  0  0  0  0  0  0  0  0  0  0
    5.7334   -0.5700    1.3707 C   0  0  0  0  0  0  0  0  0  0  0  0
    7.0671   -0.6529    1.0793 C   0  0  0  0  0  0  0  0  0  0  0  0
    7.6792    0.2942    0.2734 C   0  0  0  0  0  0  0  0  0  0  0  0
    6.8369    1.0100   -0.5699 C   0  0  0  0  0  0  0  0  0  0  0  0
    5.4577    0.8553   -0.4944 C   0  0  0  0  0  0  0  0  0  0  0  0
    4.0748    1.2095   -1.4513 S   0  0  0  0  0  0  0  0  0  0  0  0
   -1.9935    3.0769    1.6600 C   0  0  0  0  0  0  0  0  0  0  0  0
  1  2  1  0
  2  3  2  0
  3  4  1  0
  4  5  2  0
  5  6  1  0
  6  7  1  0
  7  8  1  0
  8  9  1  0
  9 10  2  0
 10 11  1  0
 11 12  1  0
 11 13  2  0
 13 14  1  0
 14 15  2  0
 15 16  1  0
 16 17  1  0
 17 18  2  0
 17 19  1  0
 19 20  1  0
 20 21  2  0
 21 22  1  0
 22 23  3  0
 21 24  1  0
 24 25  2  0
 25 26  1  0
 26 27  2  0
 27 28  1  0
 28 29  2  0
 29 30  1  0
 30 31  2  0
 31 32  1  0
  6 33  2  0
 33  2  1  0
 19  8  2  0
 32 24  1  0
 16 10  1  0
 31 26  1  0
M  END
>  <zinc_id>  (1) 
ZINC000008590261

>  <smiles>  (1) 
Cc1cccc(Oc2nc3c(C)cccn3c(=O)c2/C=C(\C#N)c2nc3ccccc3s2)c1

$$$$
