
     RDKit          3D

 31 32  0  0  0  0  0  0  0  0999 V2000
   -7.4024    1.4679   -0.7310 C   0  0  0  0  0  0  0  0  0  0  0  0
   -6.2717    0.6740   -0.5103 C   0  0  0  0  0  0  0  0  0  0  0  0
   -4.9669    1.1341   -0.6491 C   0  0  0  0  0  0  0  0  0  0  0  0
   -4.8089    2.5740   -1.0114 C   0  0  0  0  0  0  0  0  0  0  0  0
   -3.8893    0.5019   -0.0899 C   0  0  0  0  0  0  0  0  0  0  0  0
   -4.0619   -0.8105    0.3216 C   0  0  0  0  0  0  0  0  0  0  0  0
   -5.3445   -1.2922    0.5539 C   0  0  0  0  0  0  0  0  0  0  0  0
   -5.5351   -2.5709    1.2767 C   0  0  0  0  0  0  0  0  0  0  0  0
   -6.4297   -0.5090    0.2010 C   0  0  0  0  0  0  0  0  0  0  0  0
   -7.6927   -0.8806    0.6696 O   0  0  0  0  0  0  0  0  0  0  0  0
   -2.8572   -1.6194    0.5711 C   0  0  0  0  0  0  0  0  0  0  0  0
   -1.7458   -0.8751    1.2447 C   0  0  0  0  0  0  0  0  0  0  0  0
   -2.0366    0.5995    1.4227 C   0  0  1  0  0  0  0  0  0  0  0  0
   -2.9416    0.6960    2.6471 C   0  0  0  0  0  0  0  0  0  0  0  0
   -0.7880    1.3687    1.7502 C   0  0  0  0  0  0  0  0  0  0  0  0
    0.2133    1.3886    0.6305 C   0  0  0  0  0  0  0  0  0  0  0  0
    0.6880   -0.0341    0.3538 C   0  0  0  0  0  0  0  0  0  0  0  0
    0.6859   -0.0025   -1.3026 C   0  0  2  0  0  0  0  0  0  0  0  0
    1.5064   -1.4387   -1.3969 C   0  0  0  0  0  0  0  0  0  0  0  0
    2.0806    0.8862   -1.3565 C   0  0  0  0  0  0  0  0  0  0  0  0
    3.0289    0.2222   -0.4092 C   0  0  0  0  0  0  0  0  0  0  0  0
    4.4119    0.6462   -0.7520 C   0  0  0  0  0  0  0  0  0  0  0  0
    4.8271   -0.2013   -2.1129 C   0  0  2  0  0  0  0  0  0  0  0  0
    5.5659   -1.3885   -1.2259 C   0  0  0  0  0  0  0  0  0  0  0  0
    6.2441    0.6356   -2.2921 C   0  0  0  0  0  0  0  0  0  0  0  0
    6.8565    0.7291   -0.9424 C   0  0  0  0  0  0  0  0  0  0  0  0
    7.9975   -0.1916   -0.6789 C   0  0  0  0  0  0  0  0  0  0  0  0
    8.5527    0.0886    0.6984 C   0  0  0  0  0  0  0  0  0  0  0  0
    9.3452   -1.1527    1.0917 C   0  0  0  0  0  0  0  0  0  0  0  0
    7.4780    0.2551    1.7416 C   0  0  0  0  0  0  0  0  0  0  0  0
   -2.7098    1.1411    0.2864 O   0  0  0  0  0  0  0  0  0  0  0  0
  1  2  1  0
  2  3  2  0
  3  4  1  0
  3  5  1  0
  5  6  2  0
  6  7  1  0
  7  8  1  0
  7  9  2  0
  9 10  1  0
  6 11  1  0
 11 12  1  0
 12 13  1  0
 13 14  1  1
 13 15  1  0
 15 16  1  0
 16 17  1  0
 18 17  1  1
 18 19  1  0
 18 20  1  0
 20 21  1  0
 21 22  1  0
 23 22  1  1
 23 24  1  0
 23 25  1  0
 25 26  1  0
 26 27  1  0
 27 28  1  0
 28 29  1  0
 28 30  1  0
 13 31  1  0
  9  2  1  0
 31  5  1  0
M  END
>  <zinc_id>  (1) 
ZINC000004095858

>  <smiles>  (1) 
Cc1c(C)c2c(c(C)c1O)CC[C@@](C)(CCC[C@H](C)CCC[C@H](C)CCCC(C)C)O2

$$$$
