REMARK SMILES C[C@H](NC(=O)CCc1nc2ccccc2c(=O)[nH]1)c1ccccc1
REMARK SMILES IDX 3 1 4 2 5 3 2 4 1 5 19 6 20 7 24 8 21 9 23 10 22 11 6 12
REMARK SMILES IDX 7 13 8 14 9 15 18 16 10 17 16 18 11 19 15 20 17 21 12 22
REMARK SMILES IDX 14 23 13 24
REMARK H PARENT
REMARK Flexibility Score: inf
ROOT
ATOM      1  N   UNL     1       2.328  -0.110   0.374  1.00  0.00    -0.350 N 
ATOM      2  C   UNL     1       0.968  -0.347  -0.015  1.00  0.00     0.220 C 
ATOM      3  O   UNL     1       0.357   0.666  -0.445  1.00  0.00    -0.275 OA
ENDROOT
BRANCH   1   4
ATOM      4  C   UNL     1       2.966   1.163  -0.307  1.00  0.00     0.051 C 
ATOM      5  C   UNL     1       2.957   1.990   1.115  1.00  0.00    -0.040 C 
BRANCH   4   6
ATOM      6  C   UNL     1       4.468   0.629  -0.055  1.00  0.00    -0.026 A 
ATOM      7  C   UNL     1       5.402   1.610  -0.373  1.00  0.00    -0.057 A 
ATOM      8  C   UNL     1       4.713  -0.595  -0.667  1.00  0.00    -0.057 A 
ATOM      9  C   UNL     1       6.732   1.229  -0.233  1.00  0.00    -0.062 A 
ATOM     10  C   UNL     1       6.045  -0.985  -0.702  1.00  0.00    -0.062 A 
ATOM     11  C   UNL     1       7.044  -0.124  -0.265  1.00  0.00    -0.062 A 
ENDBRANCH   4   6
ENDBRANCH   1   4
BRANCH   2  12
ATOM     12  C   UNL     1       0.388  -1.690  -0.187  1.00  0.00     0.034 C 
BRANCH  12  13
ATOM     13  C   UNL     1      -0.673  -1.774  -1.239  1.00  0.00     0.014 C 
BRANCH  13  14
ATOM     14  C   UNL     1      -2.004  -1.297  -0.776  1.00  0.00     0.110 A 
ATOM     15  N   UNL     1      -2.427  -0.025  -0.989  1.00  0.00    -0.235 NA
ATOM     16  N   UNL     1      -3.005  -2.157  -0.462  1.00  0.00    -0.310 N 
ATOM     17  C   UNL     1      -3.305   0.447  -0.071  1.00  0.00     0.078 A 
ATOM     18  C   UNL     1      -4.221  -1.702  -0.067  1.00  0.00     0.258 A 
ATOM     19  C   UNL     1      -3.298   1.720   0.432  1.00  0.00    -0.036 A 
ATOM     20  C   UNL     1      -4.377  -0.365   0.280  1.00  0.00     0.065 A 
ATOM     21  O   UNL     1      -5.191  -2.471   0.121  1.00  0.00    -0.269 OA
ATOM     22  C   UNL     1      -4.529   2.329   0.645  1.00  0.00    -0.060 A 
ATOM     23  C   UNL     1      -5.626   0.239   0.362  1.00  0.00    -0.047 A 
ATOM     24  C   UNL     1      -5.713   1.621   0.488  1.00  0.00    -0.061 A 
ENDBRANCH  13  14
ENDBRANCH  12  13
ENDBRANCH   2  12
TORSDOF 5

