REMARK SMILES CC(C)[C@@H]1C(=O)N(S(C)(=O)=O)[C@@H]2CCN(C(=O)/C=C/CN3CCCCC3)[C@@H]12
REMARK SMILES IDX 16 1 17 2 15 3 4 4 5 5 27 6 6 7 7 8 12 9 13 10 14 11 2 12
REMARK SMILES IDX 1 13 3 14 8 15 9 16 10 17 11 18 18 19 19 20 20 21 21 22
REMARK SMILES IDX 22 23 26 24 23 25 25 26 24 27
REMARK H PARENT
REMARK Flexibility Score: inf
ROOT
ATOM      1  C   UNL     1       0.493   0.034  -0.104  1.00  0.00     0.246 C 
ATOM      2  O   UNL     1       0.152   1.228  -0.373  1.00  0.00    -0.270 OA
ENDROOT
BRANCH   1   3
ATOM      3  N   UNL     1      -0.389  -1.059  -0.307  1.00  0.00    -0.333 N 
ATOM      4  C   UNL     1      -1.818   0.136   1.357  1.00  0.00     0.064 C 
ATOM      5  C   UNL     1      -3.158   0.822   0.811  1.00  0.00     0.241 C 
ATOM      6  C   UNL     1      -1.854  -1.093   0.195  1.00  0.00     0.066 C 
ATOM      7  O   UNL     1      -3.779   1.640   1.526  1.00  0.00    -0.273 OA
ATOM      8  N   UNL     1      -3.532   0.172  -0.411  1.00  0.00    -0.234 N 
ATOM      9  C   UNL     1      -2.061   0.165  -0.944  1.00  0.00     0.071 C 
ATOM     10  C   UNL     1      -2.135  -1.060  -2.022  1.00  0.00    -0.011 C 
ATOM     11  C   UNL     1      -0.705  -1.496  -1.679  1.00  0.00     0.023 C 
BRANCH   4  12
ATOM     12  C   UNL     1      -2.666  -0.689   2.474  1.00  0.00    -0.033 C 
ATOM     13  C   UNL     1      -3.365  -0.399   2.497  1.00  0.00    -0.062 C 
ATOM     14  C   UNL     1      -2.589  -2.136   2.244  1.00  0.00    -0.062 C 
ENDBRANCH   4  12
BRANCH   8  15
ATOM     15  S   UNL     1      -4.881   0.565  -1.350  1.00  0.00     0.234 S 
ATOM     16  C   UNL     1      -4.597   2.046  -2.261  1.00  0.00     0.058 C 
ATOM     17  O   UNL     1      -5.238  -0.603  -2.224  1.00  0.00    -0.207 OA
ATOM     18  O   UNL     1      -6.004   0.847  -0.383  1.00  0.00    -0.207 OA
ENDBRANCH   8  15
ENDBRANCH   1   3
BRANCH   1  19
ATOM     19  C   UNL     1       1.720  -0.052   0.698  1.00  0.00     0.000 C 
ATOM     20  C   UNL     1       2.910  -0.318   0.232  1.00  0.00    -0.065 C 
BRANCH  20  21
ATOM     21  C   UNL     1       4.094   0.572   0.308  1.00  0.00     0.017 C 
BRANCH  21  22
ATOM     22  N   UNL     1       5.266  -0.054   0.835  1.00  0.00    -0.300 NA
ATOM     23  C   UNL     1       5.849  -1.058   0.004  1.00  0.00    -0.002 C 
ATOM     24  C   UNL     1       6.184   0.874   1.413  1.00  0.00    -0.002 C 
ATOM     25  C   UNL     1       6.839  -0.531  -0.999  1.00  0.00    -0.040 C 
ATOM     26  C   UNL     1       7.326   1.278   0.545  1.00  0.00    -0.040 C 
ATOM     27  C   UNL     1       7.939   0.169  -0.250  1.00  0.00    -0.051 C 
ENDBRANCH  21  22
ENDBRANCH  20  21
ENDBRANCH   1  19
TORSDOF 6

