
     RDKit          3D

 31 33  0  0  0  0  0  0  0  0999 V2000
   -7.1184    3.9212    1.0010 C   0  0  0  0  0  0  0  0  0  0  0  0
   -6.2568    4.1788    0.0161 C   0  0  0  0  0  0  0  0  0  0  0  0
   -5.7832    3.0000   -0.7204 C   0  0  0  0  0  0  0  0  0  0  0  0
   -6.5665    2.4129   -1.5258 O   0  0  0  0  0  0  0  0  0  0  0  0
   -4.6176    2.2781   -0.3497 N   0  0  0  0  0  0  0  0  0  0  0  0
   -4.5820    0.8556   -0.2502 C   0  0  0  0  0  0  0  0  0  0  0  0
   -5.6918    0.0593   -0.4686 C   0  0  0  0  0  0  0  0  0  0  0  0
   -5.9820   -0.9896    0.3893 C   0  0  0  0  0  0  0  0  0  0  0  0
   -4.9791   -1.4765    1.2192 C   0  0  0  0  0  0  0  0  0  0  0  0
   -3.6903   -1.0124    0.9868 C   0  0  0  0  0  0  0  0  0  0  0  0
   -2.5438   -1.6281    1.5590 N   0  0  0  0  0  0  0  0  0  0  0  0
   -1.2799   -1.5177    0.9060 C   0  0  0  0  0  0  0  0  0  0  0  0
   -0.1094   -1.7207    1.5335 N   0  0  0  0  0  0  0  0  0  0  0  0
    1.0418   -1.9308    0.8910 C   0  0  0  0  0  0  0  0  0  0  0  0
    2.2199   -2.4399    1.5141 N   0  0  0  0  0  0  0  0  0  0  0  0
    3.4961   -1.8824    1.2411 C   0  0  0  0  0  0  0  0  0  0  0  0
    3.7708   -0.6617    1.8417 C   0  0  0  0  0  0  0  0  0  0  0  0
    4.9087    0.0092    1.4488 C   0  0  0  0  0  0  0  0  0  0  0  0
    5.8703   -0.6340    0.6996 C   0  0  0  0  0  0  0  0  0  0  0  0
    7.1687   -0.1270    0.6522 O   0  0  0  0  0  0  0  0  0  0  0  0
    7.4369    0.8575   -0.3284 C   0  0  0  0  0  0  0  0  0  0  0  0
    6.4196    1.9682   -0.2507 C   0  0  0  0  0  0  0  0  0  0  0  0
    6.9916    3.1800    0.1562 O   0  0  0  0  0  0  0  0  0  0  0  0
    6.1656    3.7696    1.1265 C   0  0  0  0  0  0  0  0  0  0  0  0
    5.4661   -1.7073   -0.0846 C   0  0  0  0  0  0  0  0  0  0  0  0
    4.4354   -2.4727    0.4344 C   0  0  0  0  0  0  0  0  0  0  0  0
    1.0947   -1.5751   -0.4143 N   0  0  0  0  0  0  0  0  0  0  0  0
   -0.0622   -1.3717   -1.0886 C   0  0  0  0  0  0  0  0  0  0  0  0
   -1.2953   -1.5794   -0.4820 C   0  0  0  0  0  0  0  0  0  0  0  0
   -2.3470   -2.0596   -1.1822 F   0  0  0  0  0  0  0  0  0  0  0  0
   -3.5811    0.2962    0.5330 C   0  0  0  0  0  0  0  0  0  0  0  0
  1  2  2  0
  2  3  1  0
  3  4  2  0
  3  5  1  0
  5  6  1  0
  6  7  2  0
  7  8  1  0
  8  9  2  0
  9 10  1  0
 10 11  1  0
 11 12  1  0
 12 13  2  0
 13 14  1  0
 14 15  1  0
 15 16  1  0
 16 17  2  0
 17 18  1  0
 18 19  2  0
 19 20  1  0
 20 21  1  0
 21 22  1  0
 22 23  1  0
 23 24  1  0
 19 25  1  0
 25 26  2  0
 14 27  2  0
 27 28  1  0
 28 29  2  0
 29 30  1  0
 10 31  2  0
 31  6  1  0
 29 12  1  0
 26 16  1  0
M  END
>  <zinc_id>  (1) 
ZINC000072319585

>  <smiles>  (1) 
C=CC(=O)Nc1cccc(Nc2nc(Nc3ccc(OCCOC)cc3)ncc2F)c1

$$$$
