REMARK SMILES Cc1cn[nH]c1
REMARK SMILES IDX 1 1 2 2 3 3 4 4 5 5 6 6
REMARK H PARENT
REMARK Flexibility Score: inf
ROOT
ATOM      1  C   UNL     1       2.096   0.088  -0.688  1.00  0.00    -0.037 C 
ATOM      2  C   UNL     1       0.687   0.087  -0.225  1.00  0.00    -0.013 A 
ATOM      3  C   UNL     1       0.004   0.916   0.618  1.00  0.00     0.052 A 
ATOM      4  N   UNL     1      -1.270   0.454   0.657  1.00  0.00    -0.184 NA
ATOM      5  N   UNL     1      -1.385  -0.522  -0.245  1.00  0.00    -0.285 N 
ATOM      6  C   UNL     1      -0.133  -1.024  -0.374  1.00  0.00     0.024 A 
ENDROOT
TORSDOF 0

