
     RDKit          3D

 43 47  0  0  0  0  0  0  0  0999 V2000
    4.0104    5.7472    1.5670 C   0  0  0  0  0  0  0  0  0  0  0  0
    2.9420    5.0038    0.8669 C   0  0  0  0  0  0  0  0  0  0  0  0
    2.4048    5.4409   -0.3382 C   0  0  0  0  0  0  0  0  0  0  0  0
    1.1451    5.0440   -0.7644 C   0  0  0  0  0  0  0  0  0  0  0  0
    0.7431    5.2568   -2.1878 C   0  0  0  0  0  0  0  0  0  0  0  0
    0.4445    4.2610    0.1231 C   0  0  0  0  0  0  0  0  0  0  0  0
    1.1191    3.4291    1.0097 C   0  0  0  0  0  0  0  0  0  0  0  0
    0.7143    2.0368    1.2440 C   0  0  0  0  0  0  0  0  0  0  0  0
    0.2273    1.7045    2.3433 O   0  0  0  0  0  0  0  0  0  0  0  0
    1.0142    1.0382    0.2592 N   0  0  0  0  0  0  0  0  0  0  0  0
    1.8037    1.3167   -0.8568 C   0  0  0  0  0  0  0  0  0  0  0  0
   -0.1344   -0.0764    0.1879 C   0  0  2  0  0  0  0  0  0  0  0  0
    0.5005   -0.8584   -1.1532 C   0  0  0  0  0  0  0  0  0  0  0  0
    1.7963   -1.3923   -0.6808 C   0  0  0  0  0  0  0  0  0  0  0  0
    2.6648   -1.7735   -1.6750 C   0  0  0  0  0  0  0  0  0  0  0  0
    3.6642   -2.7064   -1.4858 C   0  0  0  0  0  0  0  0  0  0  0  0
    3.8246   -3.1307   -0.1712 C   0  0  0  0  0  0  0  0  0  0  0  0
    4.8695   -4.1356    0.0738 C   0  0  0  0  0  0  0  0  0  0  0  0
    4.7193   -5.0815    1.0734 C   0  0  0  0  0  0  0  0  0  0  0  0
    5.8167   -5.7078    1.6368 C   0  0  0  0  0  0  0  0  0  0  0  0
    7.0223   -5.0192    1.6754 C   0  0  0  0  0  0  0  0  0  0  0  0
    7.2356   -4.1539    0.6102 C   0  0  0  0  0  0  0  0  0  0  0  0
    6.1831   -3.7975   -0.2247 C   0  0  0  0  0  0  0  0  0  0  0  0
    3.2473   -2.4117    0.8679 C   0  0  0  0  0  0  0  0  0  0  0  0
    2.1007   -1.6692    0.6195 C   0  0  0  0  0  0  0  0  0  0  0  0
   -1.1157    0.8613   -0.7421 C   0  0  0  0  0  0  0  0  0  0  0  0
   -0.5614    1.3745   -1.7291 O   0  0  0  0  0  0  0  0  0  0  0  0
   -2.4471    0.3123   -0.7843 N   0  0  0  0  0  0  0  0  0  0  0  0
   -3.1493    0.8456   -2.1278 C   0  0  1  0  0  0  0  0  0  0  0  0
   -4.6976    0.5909   -1.5446 C   0  0  0  0  0  0  0  0  0  0  0  0
   -4.6579   -0.7462   -0.9364 C   0  0  0  0  0  0  0  0  0  0  0  0
   -4.6971   -1.9674   -1.5832 C   0  0  0  0  0  0  0  0  0  0  0  0
   -5.4232   -2.8370   -0.8605 N   0  0  0  0  0  0  0  0  0  0  0  0
   -5.5765   -2.3258    0.3751 C   0  0  0  0  0  0  0  0  0  0  0  0
   -6.1289   -2.8227    1.5412 C   0  0  0  0  0  0  0  0  0  0  0  0
   -6.5169   -1.9781    2.5718 C   0  0  0  0  0  0  0  0  0  0  0  0
   -6.2949   -0.6119    2.4481 C   0  0  0  0  0  0  0  0  0  0  0  0
   -5.7057   -0.1728    1.2949 C   0  0  0  0  0  0  0  0  0  0  0  0
   -5.2173   -0.9942    0.3110 C   0  0  0  0  0  0  0  0  0  0  0  0
   -3.1310    2.3954   -1.5851 C   0  0  0  0  0  0  0  0  0  0  0  0
   -3.5163    3.2139   -2.4486 O   0  0  0  0  0  0  0  0  0  0  0  0
   -3.5719    2.5805   -0.2999 O   0  0  0  0  0  0  0  0  0  0  0  0
    2.3297    3.9167    1.4795 C   0  0  0  0  0  0  0  0  0  0  0  0
  1  2  1  0
  2  3  2  0
  3  4  1  0
  4  5  1  0
  4  6  2  0
  6  7  1  0
  7  8  1  0
  8  9  2  0
  8 10  1  0
 10 11  1  0
 12 10  1  6
 12 13  1  0
 13 14  1  0
 14 15  2  0
 15 16  1  0
 16 17  2  0
 17 18  1  0
 18 19  2  0
 19 20  1  0
 20 21  2  0
 21 22  1  0
 22 23  2  0
 17 24  1  0
 24 25  2  0
 12 26  1  0
 26 27  2  0
 26 28  1  0
 29 28  1  1
 29 30  1  0
 30 31  1  0
 31 32  2  0
 32 33  1  0
 33 34  1  0
 34 35  2  0
 35 36  1  0
 36 37  2  0
 37 38  1  0
 38 39  2  0
 29 40  1  0
 40 41  2  0
 40 42  1  0
  7 43  2  0
 43  2  1  0
 25 14  1  0
 39 31  1  0
 23 18  1  0
 39 34  1  0
M  END
>  <zinc_id>  (1) 
ZINC000001891205

>  <smiles>  (1) 
Cc1cc(C)cc(C(=O)N(C)[C@H](Cc2ccc(-c3ccccc3)cc2)C(=O)N[C@@H](Cc2c[nH]c3ccccc23)C(=O)O)c1

$$$$
