
     RDKit          3D

  8  8  0  0  0  0  0  0  0  0999 V2000
    2.4786   -1.0142    0.6255 S   0  0  0  0  0  0  0  0  0  0  0  0
    1.3941   -0.1264   -0.2272 C   0  0  0  0  0  0  0  0  0  0  0  0
    1.7288    1.6184   -0.5045 S   0  0  0  0  0  0  0  0  0  0  0  0
    0.0210   -0.4318    0.0231 N   0  0  0  0  0  0  0  0  0  0  0  0
   -0.7183    0.0901    1.1671 C   0  0  0  0  0  0  0  0  0  0  0  0
   -1.8366    0.8363    0.4928 C   0  0  0  0  0  0  0  0  0  0  0  0
   -2.0850    0.0330   -0.7542 C   0  0  0  0  0  0  0  0  0  0  0  0
   -0.9826   -1.0052   -0.8227 C   0  0  0  0  0  0  0  0  0  0  0  0
  1  2  2  0
  2  3  1  0
  2  4  1  0
  4  5  1  0
  5  6  1  0
  6  7  1  0
  7  8  1  0
  8  4  1  0
M  END
>  <zinc_id>  (1) 
ZINC000000388258

>  <smiles>  (1) 
S=C(S)N1CCCC1

$$$$
