REMARK SMILES CNC(=O)[C@H](Cc1ccccc1)NC(=O)[C@H](CC(C)C)[C@H](CSc1cccs1)C(=O)NO
REMARK SMILES IDX 16 1 14 2 13 3 15 4 5 5 3 6 1 7 2 8 4 9 6 10 7 11 8 12 12 13
REMARK SMILES IDX 9 14 11 15 10 16 17 17 18 18 19 19 20 20 21 21 22 22 23 23
REMARK SMILES IDX 24 24 25 25 28 26 26 27 27 28 29 29 30 30 31 31 32 32
REMARK H PARENT
REMARK Flexibility Score: inf
ROOT
ATOM      1  C   UNL     1       0.779  -1.749  -0.836  1.00  0.00     0.051 C 
ENDROOT
BRANCH   1   2
ATOM      2  C   UNL     1      -0.020  -0.842   0.233  1.00  0.00     0.224 C 
ATOM      3  N   UNL     1      -1.367  -1.337   0.289  1.00  0.00    -0.344 N 
ATOM      4  O   UNL     1       0.513  -0.676   1.338  1.00  0.00    -0.275 OA
BRANCH   3   5
ATOM      5  C   UNL     1      -2.250  -0.123   0.862  1.00  0.00     0.112 C 
BRANCH   5   6
ATOM      6  C   UNL     1      -3.454  -1.138   1.325  1.00  0.00     0.242 C 
ATOM      7  C   UNL     1      -5.150  -1.401   2.852  1.00  0.00     0.006 C 
ATOM      8  N   UNL     1      -4.126  -0.741   2.500  1.00  0.00    -0.357 N 
ATOM      9  O   UNL     1      -3.821  -1.967   0.504  1.00  0.00    -0.273 OA
ENDBRANCH   5   6
BRANCH   5  10
ATOM     10  C   UNL     1      -2.941   0.146  -0.645  1.00  0.00     0.002 C 
BRANCH  10  11
ATOM     11  C   UNL     1      -3.699   1.402  -0.472  1.00  0.00    -0.045 A 
ATOM     12  C   UNL     1      -4.946   1.335   0.124  1.00  0.00    -0.059 A 
ATOM     13  C   UNL     1      -3.307   2.546  -1.123  1.00  0.00    -0.059 A 
ATOM     14  C   UNL     1      -5.660   2.525   0.206  1.00  0.00    -0.062 A 
ATOM     15  C   UNL     1      -3.796   3.751  -0.631  1.00  0.00    -0.062 A 
ATOM     16  C   UNL     1      -4.928   3.705   0.173  1.00  0.00    -0.062 A 
ENDBRANCH  10  11
ENDBRANCH   5  10
ENDBRANCH   3   5
ENDBRANCH   1   2
BRANCH   1  17
ATOM     17  C   UNL     1       0.912  -2.979   0.249  1.00  0.00    -0.038 C 
BRANCH  17  18
ATOM     18  C   UNL     1       2.010  -3.868  -0.215  1.00  0.00    -0.046 C 
ATOM     19  C   UNL     1       1.414  -5.113  -0.850  1.00  0.00    -0.063 C 
ATOM     20  C   UNL     1       2.782  -4.314   1.021  1.00  0.00    -0.063 C 
ENDBRANCH  17  18
ENDBRANCH   1  17
BRANCH   1  21
ATOM     21  C   UNL     1       2.346  -1.110  -0.458  1.00  0.00     0.061 C 
BRANCH  21  22
ATOM     22  C   UNL     1       1.866   0.467  -0.449  1.00  0.00     0.011 C 
BRANCH  22  23
ATOM     23  S   UNL     1       3.269   1.440  -1.001  1.00  0.00    -0.115 SA
BRANCH  23  24
ATOM     24  C   UNL     1       3.922   2.423   0.334  1.00  0.00     0.060 A 
ATOM     25  C   UNL     1       5.222   2.892   0.485  1.00  0.00    -0.038 A 
ATOM     26  S   UNL     1       3.250   2.910   1.835  1.00  0.00    -0.137 S 
ATOM     27  C   UNL     1       5.250   4.053   1.207  1.00  0.00    -0.050 A 
ATOM     28  C   UNL     1       4.521   3.927   2.386  1.00  0.00    -0.008 A 
ENDBRANCH  23  24
ENDBRANCH  22  23
ENDBRANCH  21  22
BRANCH  21  29
ATOM     29  C   UNL     1       2.761  -1.041  -2.013  1.00  0.00     0.248 C 
ATOM     30  O   UNL     1       1.938  -0.487  -2.780  1.00  0.00    -0.272 OA
ATOM     31  N   UNL     1       3.347  -2.228  -2.550  1.00  0.00    -0.238 N 
ATOM     32  O   UNL     1       3.365  -2.410  -3.901  1.00  0.00    -0.289 OA
ENDBRANCH  21  29
ENDBRANCH   1  21
TORSDOF 12

