
     RDKit          3D

 22 24  0  0  0  0  0  0  0  0999 V2000
   -5.7036   -0.7035    1.3685 C   0  0  0  0  0  0  0  0  0  0  0  0
   -5.0841   -0.3321    0.0411 C   0  0  0  0  0  0  0  0  0  0  0  0
   -5.2384    1.1508   -0.1412 C   0  0  0  0  0  0  0  0  0  0  0  0
   -3.6419   -0.6907    0.1217 C   0  0  0  0  0  0  0  0  0  0  0  0
   -3.3562   -2.0487    0.1901 C   0  0  0  0  0  0  0  0  0  0  0  0
   -2.0429   -2.4514    0.0011 C   0  0  0  0  0  0  0  0  0  0  0  0
   -1.0458   -1.5021   -0.1741 C   0  0  0  0  0  0  0  0  0  0  0  0
    0.2039   -1.8455   -0.4357 O   0  0  0  0  0  0  0  0  0  0  0  0
    1.1566   -0.9418   -0.4138 C   0  0  0  0  0  0  0  0  0  0  0  0
    2.3003   -1.0715   -1.1286 N   0  0  0  0  0  0  0  0  0  0  0  0
    3.2800   -0.1454   -1.0050 C   0  0  0  0  0  0  0  0  0  0  0  0
    4.1617    0.1685   -2.0887 N   0  0  0  0  0  0  0  0  0  0  0  0
    3.2300    0.7412    0.0634 C   0  0  0  0  0  0  0  0  0  0  0  0
    4.3709    1.5904    0.3839 C   0  0  0  0  0  0  0  0  0  0  0  0
    4.6808    1.6929    1.6092 O   0  0  0  0  0  0  0  0  0  0  0  0
    4.6169    2.7171   -0.3927 O   0  0  0  0  0  0  0  0  0  0  0  0
    2.0399    0.9774    0.7403 C   0  0  0  0  0  0  0  0  0  0  0  0
    0.9645    0.1626    0.4052 C   0  0  0  0  0  0  0  0  0  0  0  0
   -0.3263    0.6501    0.5624 C   0  0  0  0  0  0  0  0  0  0  0  0
   -0.5830    1.8331    0.8699 O   0  0  0  0  0  0  0  0  0  0  0  0
   -1.3525   -0.1918    0.1618 C   0  0  0  0  0  0  0  0  0  0  0  0
   -2.6308    0.2404   -0.0759 C   0  0  0  0  0  0  0  0  0  0  0  0
  1  2  1  0
  2  3  1  0
  2  4  1  0
  4  5  2  0
  5  6  1  0
  6  7  2  0
  7  8  1  0
  8  9  1  0
  9 10  2  0
 10 11  1  0
 11 12  1  0
 11 13  2  0
 13 14  1  0
 14 15  2  0
 14 16  1  0
 13 17  1  0
 17 18  2  0
 18 19  1  0
 19 20  2  0
 19 21  1  0
 21 22  2  0
 22  4  1  0
 21  7  1  0
 18  9  1  0
M  END
>  <zinc_id>  (1) 
ZINC000000000928

>  <smiles>  (1) 
CC(C)c1ccc2oc3nc(N)c(C(=O)O)cc3c(=O)c2c1

$$$$
