REMARK SMILES OC[C@H]1O[C@@H](n2cnc3c2N=CNC[C@H]3O)C[C@@H]1O
REMARK SMILES IDX 6 1 7 2 8 3 9 4 10 5 5 6 3 7 4 8 18 9 17 10 19 11 2 12 1 13
REMARK SMILES IDX 11 14 12 15 13 16 14 17 15 19 16 20
REMARK H PARENT
REMARK Flexibility Score: 90.00
ROOT
ATOM      1  N   UNL     1      -0.233  -0.923   0.853  1.00  0.00    -0.288 N 
ATOM      2  C   UNL     1      -0.393  -2.027   0.223  1.00  0.00     0.099 A 
ATOM      3  N   UNL     1      -1.639  -2.100  -0.340  1.00  0.00    -0.236 NA
ATOM      4  C   UNL     1      -2.055  -0.855  -0.348  1.00  0.00     0.115 A 
ATOM      5  C   UNL     1      -1.363  -0.196   0.624  1.00  0.00     0.162 A 
ENDROOT
BRANCH   1   6
ATOM      6  C   UNL     1       1.004   0.064   0.900  1.00  0.00     0.139 C 
ATOM      7  C   UNL     1       2.643   0.660  -0.005  1.00  0.00     0.109 C 
ATOM      8  O   UNL     1       1.690  -0.452  -0.372  1.00  0.00    -0.350 OA
ATOM      9  C   UNL     1       3.377  -0.263   1.247  1.00  0.00     0.087 C 
ATOM     10  C   UNL     1       1.979  -0.973   1.727  1.00  0.00     0.022 C 
ATOM     11  O   UNL     1       3.178   0.877   2.214  1.00  0.00    -0.390 OA
BRANCH   7  12
ATOM     12  C   UNL     1       3.749   0.190  -1.114  1.00  0.00     0.072 C 
ATOM     13  O   UNL     1       3.989   1.287  -1.811  1.00  0.00    -0.394 OA
ENDBRANCH   7  12
ENDBRANCH   1   6
BRANCH   5  14
ATOM     14  N   UNL     1      -1.700   1.044   1.254  1.00  0.00    -0.219 NA
ATOM     15  C   UNL     1      -2.562   1.910   0.807  1.00  0.00     0.091 C 
ATOM     16  N   UNL     1      -2.909   2.012  -0.579  1.00  0.00    -0.373 N 
BRANCH  16  17
ATOM     17  C   UNL     1      -2.552   1.079  -1.643  1.00  0.00     0.048 CG0
ATOM     18  G   UNL     1      -3.318  -0.315  -1.179  1.00  0.00     0.000 G0
ENDBRANCH  16  17
ENDBRANCH   5  14
BRANCH   4  19
ATOM     19  C   UNL     1      -3.318  -0.315  -1.179  1.00  0.00     0.117 CG0
ATOM     20  O   UNL     1      -2.885  -1.019  -2.458  1.00  0.00    -0.385 OA
ATOM     21  G   UNL     1      -2.552   1.079  -1.643  1.00  0.00     0.000 G0
ENDBRANCH   4  19
TORSDOF 2

