
     RDKit          3D

 38 41  0  0  0  0  0  0  0  0999 V2000
    5.1844   -0.5909   -2.8259 C   0  0  0  0  0  0  0  0  0  0  0  0
    4.3824   -0.2568   -1.6232 C   0  0  0  0  0  0  0  0  0  0  0  0
    3.0112   -0.3061   -1.6433 C   0  0  0  0  0  0  0  0  0  0  0  0
    2.2456    0.3880   -0.7437 C   0  0  0  0  0  0  0  0  0  0  0  0
    0.8621    0.5536   -0.9714 N   0  0  0  0  0  0  0  0  0  0  0  0
   -0.0591   -0.3849   -0.4031 C   0  0  0  0  0  0  0  0  0  0  0  0
    0.3164   -1.1050    0.6783 N   0  0  0  0  0  0  0  0  0  0  0  0
   -0.5336   -1.3832    1.6945 C   0  0  0  0  0  0  0  0  0  0  0  0
   -1.8310   -0.8971    1.6587 C   0  0  0  0  0  0  0  0  0  0  0  0
   -2.6631   -0.3393    3.1048 Cl  0  0  0  0  0  0  0  0  0  0  0  0
   -2.2798   -0.4779    0.4121 C   0  0  0  0  0  0  0  0  0  0  0  0
   -3.6832   -0.3525    0.2409 N   0  0  0  0  0  0  0  0  0  0  0  0
   -4.4863   -1.4520   -0.2009 C   0  0  0  0  0  0  0  0  0  0  0  0
   -3.8717   -2.6881   -0.3277 C   0  0  0  0  0  0  0  0  0  0  0  0
   -4.5827   -3.8605   -0.1051 C   0  0  0  0  0  0  0  0  0  0  0  0
   -5.9424   -3.8191   -0.3895 C   0  0  0  0  0  0  0  0  0  0  0  0
   -6.5607   -2.6019   -0.1312 C   0  0  0  0  0  0  0  0  0  0  0  0
   -5.8594   -1.4224   -0.0059 C   0  0  0  0  0  0  0  0  0  0  0  0
   -6.5679    0.0033    0.7445 S   0  0  0  0  0  0  0  0  0  0  0  0
   -6.3835   -0.1009    2.2248 O   0  0  0  0  0  0  0  0  0  0  0  0
   -8.0396    0.1077    0.4303 O   0  0  0  0  0  0  0  0  0  0  0  0
   -5.6973    1.4075    0.0656 C   0  0  0  0  0  0  0  0  0  0  0  0
   -6.6209    2.1628   -0.8661 C   0  0  0  0  0  0  0  0  0  0  0  0
   -5.2940    2.3615    1.1614 C   0  0  0  0  0  0  0  0  0  0  0  0
   -1.3921   -0.2373   -0.5835 N   0  0  0  0  0  0  0  0  0  0  0  0
    2.9193    0.9916    0.3108 C   0  0  0  0  0  0  0  0  0  0  0  0
    2.1067    1.5839    1.2807 O   0  0  0  0  0  0  0  0  0  0  0  0
    1.4467    2.8171    1.0104 C   0  0  0  0  0  0  0  0  0  0  0  0
    2.2910    3.5520   -0.0210 C   0  0  0  0  0  0  0  0  0  0  0  0
    1.4935    3.6152    2.3072 C   0  0  0  0  0  0  0  0  0  0  0  0
    4.2579    0.7099    0.5410 C   0  0  0  0  0  0  0  0  0  0  0  0
    5.0051    0.0568   -0.4221 C   0  0  0  0  0  0  0  0  0  0  0  0
    6.4788   -0.0177   -0.4078 C   0  0  0  0  0  0  0  0  0  0  0  0
    7.1280    0.8165   -1.4735 C   0  0  0  0  0  0  0  0  0  0  0  0
    8.5707    0.3985   -1.6248 C   0  0  0  0  0  0  0  0  0  0  0  0
    9.0711   -0.0826   -0.3416 N   0  0  0  0  0  0  0  0  0  0  0  0
    8.5019    0.6753    0.7676 C   0  0  0  0  0  0  0  0  0  0  0  0
    7.0758    0.1752    0.9554 C   0  0  0  0  0  0  0  0  0  0  0  0
  1  2  1  0
  2  3  2  0
  3  4  1  0
  4  5  1  0
  5  6  1  0
  6  7  2  0
  7  8  1  0
  8  9  2  0
  9 10  1  0
  9 11  1  0
 11 12  1  0
 12 13  1  0
 13 14  2  0
 14 15  1  0
 15 16  2  0
 16 17  1  0
 17 18  2  0
 18 19  1  0
 19 20  2  0
 19 21  2  0
 19 22  1  0
 22 23  1  0
 22 24  1  0
 11 25  2  0
  4 26  2  0
 26 27  1  0
 27 28  1  0
 28 29  1  0
 28 30  1  0
 26 31  1  0
 31 32  2  0
 32 33  1  0
 33 34  1  0
 34 35  1  0
 35 36  1  0
 36 37  1  0
 37 38  1  0
 32  2  1  0
 38 33  1  0
 25  6  1  0
 18 13  1  0
M  END
>  <zinc_id>  (1) 
ZINC000096272772

>  <smiles>  (1) 
Cc1cc(Nc2ncc(Cl)c(Nc3ccccc3S(=O)(=O)C(C)C)n2)c(OC(C)C)cc1C1CCNCC1

$$$$
