
     RDKit          3D

 36 37  0  0  0  0  0  0  0  0999 V2000
   -3.6017    3.7165    0.2702 C   0  0  0  0  0  0  0  0  0  0  0  0
   -3.0391    2.9869   -0.9096 C   0  0  0  0  0  0  0  0  0  0  0  0
   -2.1355    2.0782   -0.6422 C   0  0  0  0  0  0  0  0  0  0  0  0
   -1.8646    1.4810    0.6338 N   0  0  0  0  0  0  0  0  0  0  0  0
   -0.4679    1.2796    0.9182 C   0  0  0  0  0  0  0  0  0  0  0  0
    0.0100    0.3095    1.5176 O   0  0  0  0  0  0  0  0  0  0  0  0
    0.5489    2.3335    0.2713 C   0  0  1  0  0  0  0  0  0  0  0  0
    0.6142    3.1066    1.7321 C   0  0  0  0  0  0  0  0  0  0  0  0
    0.9636    1.9300    3.0312 S   0  0  0  0  0  0  0  0  0  0  0  0
   -0.6137    1.2223    4.1945 S   0  0  0  0  0  0  0  0  0  0  0  0
   -0.7597   -0.5477    4.4979 C   0  0  0  0  0  0  0  0  0  0  0  0
   -0.3480   -1.4409    3.3738 C   0  0  0  0  0  0  0  0  0  0  0  0
   -1.3740   -2.0089    2.5213 C   0  0  0  0  0  0  0  0  0  0  0  0
   -1.4754   -2.1082    1.2228 C   0  0  0  0  0  0  0  0  0  0  0  0
   -0.4100   -3.0590    0.4576 C   0  0  2  0  0  0  0  0  0  0  0  0
    0.8634   -2.1989    1.0608 C   0  0  0  0  0  0  0  0  0  0  0  0
    1.8763   -2.1034   -0.0302 C   0  0  0  0  0  0  0  0  0  0  0  0
    2.2889   -3.2684   -0.3354 O   0  0  0  0  0  0  0  0  0  0  0  0
    2.7523   -0.9758    0.0796 N   0  0  0  0  0  0  0  0  0  0  0  0
    2.8653   -0.0441   -1.1866 C   0  0  2  0  0  0  0  0  0  0  0  0
    4.5038   -0.1979   -1.2126 C   0  0  0  0  0  0  0  0  0  0  0  0
    4.8258   -1.6434   -1.0133 C   0  0  0  0  0  0  0  0  0  0  0  0
    4.7823    0.0701   -2.6895 C   0  0  0  0  0  0  0  0  0  0  0  0
    2.8642    1.3150   -0.3151 C   0  0  0  0  0  0  0  0  0  0  0  0
    3.8185    2.1205   -0.5460 O   0  0  0  0  0  0  0  0  0  0  0  0
    1.8598    1.5200    0.5940 N   0  0  0  0  0  0  0  0  0  0  0  0
   -0.3701   -2.3240   -0.8931 O   0  0  0  0  0  0  0  0  0  0  0  0
   -1.5094   -2.0395   -1.5356 C   0  0  0  0  0  0  0  0  0  0  0  0
   -2.2515   -2.6469   -2.2758 O   0  0  0  0  0  0  0  0  0  0  0  0
   -1.9951   -0.7517   -0.7157 C   0  0  2  0  0  0  0  0  0  0  0  0
   -3.2206   -0.3782   -1.7416 C   0  0  0  0  0  0  0  0  0  0  0  0
   -4.3069   -1.3611   -1.5088 C   0  0  0  0  0  0  0  0  0  0  0  0
   -2.6686   -0.3232   -3.1146 C   0  0  0  0  0  0  0  0  0  0  0  0
   -0.9308    0.1722   -1.4399 N   0  0  0  0  0  0  0  0  0  0  0  0
   -1.1534    1.5550   -1.6061 C   0  0  0  0  0  0  0  0  0  0  0  0
   -0.9411    2.2247   -2.6651 O   0  0  0  0  0  0  0  0  0  0  0  0
  1  2  1  0
  2  3  2  0
  3  4  1  0
  4  5  1  0
  5  6  2  0
  7  5  1  1
  7  8  1  0
  8  9  1  0
  9 10  1  0
 10 11  1  0
 11 12  1  0
 12 13  1  0
 13 14  2  0
 15 14  1  1
 15 16  1  0
 16 17  1  0
 17 18  2  0
 17 19  1  0
 19 20  1  0
 20 21  1  1
 21 22  1  0
 21 23  1  0
 20 24  1  0
 24 25  2  0
 24 26  1  0
 15 27  1  0
 27 28  1  0
 28 29  2  0
 28 30  1  0
 30 31  1  6
 31 32  1  0
 31 33  1  0
 30 34  1  0
 34 35  1  0
 35 36  2  0
 35  3  1  0
 26  7  1  0
M  END
>  <zinc_id>  (1) 
ZINC000003935130

>  <smiles>  (1) 
C/C=C1\NC(=O)[C@H]2CSSCC/C=C/[C@H](CC(=O)N[C@H](C(C)C)C(=O)N2)OC(=O)[C@H](C(C)C)NC1=O

$$$$
