REMARK SMILES Cc1csc(-c2nnc(Nc3ccc(Oc4ncccc4-c4ccnc(N)n4)cc3)c3ccccc23)c1
REMARK SMILES IDX 11 1 12 2 13 3 14 4 29 5 30 6 10 7 9 8 6 9 7 10 36 11 8 12
REMARK SMILES IDX 31 13 35 14 32 15 34 16 33 17 5 18 1 19 2 20 3 21 37 22 4 23
REMARK SMILES IDX 15 24 16 25 17 26 21 27 18 28 20 29 19 30 22 31 23 32 28 33
REMARK SMILES IDX 24 34 26 35 25 36 27 37
REMARK H PARENT
REMARK Flexibility Score: inf
ROOT
ATOM      1  C   UNL     1      -0.466  -1.652   0.137  1.00  0.00     0.040 A 
ATOM      2  C   UNL     1       0.402  -1.521   1.214  1.00  0.00    -0.035 A 
ATOM      3  C   UNL     1       1.551  -0.769   1.040  1.00  0.00    -0.017 A 
ATOM      4  C   UNL     1       2.082  -0.600  -0.230  1.00  0.00     0.129 A 
ATOM      5  C   UNL     1       1.392  -1.182  -1.280  1.00  0.00    -0.017 A 
ATOM      6  C   UNL     1       0.146  -1.733  -1.108  1.00  0.00    -0.035 A 
ENDROOT
BRANCH   1   7
ATOM      7  N   UNL     1      -1.676  -2.350   0.370  1.00  0.00    -0.338 N 
BRANCH   7   8
ATOM      8  C   UNL     1      -2.956  -1.743   0.390  1.00  0.00     0.161 A 
ATOM      9  C   UNL     1      -5.455  -0.816  -0.111  1.00  0.00     0.111 A 
ATOM     10  N   UNL     1      -5.258  -2.022   0.422  1.00  0.00    -0.147 NA
ATOM     11  C   UNL     1      -4.353  -0.024  -0.406  1.00  0.00     0.014 A 
ATOM     12  N   UNL     1      -4.041  -2.546   0.288  1.00  0.00    -0.131 NA
ATOM     13  C   UNL     1      -3.171  -0.397   0.222  1.00  0.00     0.029 A 
ATOM     14  C   UNL     1      -4.564   1.257  -0.860  1.00  0.00    -0.052 A 
ATOM     15  C   UNL     1      -2.079   0.432   0.044  1.00  0.00    -0.051 A 
ATOM     16  C   UNL     1      -3.456   2.078  -0.947  1.00  0.00    -0.062 A 
ATOM     17  C   UNL     1      -2.312   1.769  -0.222  1.00  0.00    -0.061 A 
BRANCH   9  18
ATOM     18  C   UNL     1      -6.782  -0.340  -0.521  1.00  0.00     0.055 A 
ATOM     19  C   UNL     1      -8.713   2.648  -1.378  1.00  0.00    -0.039 C 
ATOM     20  C   UNL     1      -8.324   1.224  -1.124  1.00  0.00    -0.040 A 
ATOM     21  C   UNL     1      -9.167   0.166  -1.446  1.00  0.00    -0.006 A 
ATOM     22  C   UNL     1      -7.408   0.853  -0.174  1.00  0.00    -0.039 A 
ATOM     23  S   UNL     1      -8.084  -1.157  -1.285  1.00  0.00    -0.142 S 
ENDBRANCH   9  18
ENDBRANCH   7   8
ENDBRANCH   1   7
BRANCH   4  24
ATOM     24  O   UNL     1       3.427  -0.293  -0.395  1.00  0.00    -0.438 OA
BRANCH  24  25
ATOM     25  C   UNL     1       4.017   0.651   0.436  1.00  0.00     0.228 A 
ATOM     26  N   UNL     1       3.458   1.018   1.614  1.00  0.00    -0.221 NA
ATOM     27  C   UNL     1       5.104   1.344  -0.059  1.00  0.00     0.063 A 
ATOM     28  C   UNL     1       4.107   1.851   2.462  1.00  0.00     0.031 A 
ATOM     29  C   UNL     1       5.448   2.527   0.583  1.00  0.00    -0.046 A 
ATOM     30  C   UNL     1       4.955   2.773   1.859  1.00  0.00    -0.043 A 
BRANCH  27  31
ATOM     31  C   UNL     1       6.079   0.647  -0.907  1.00  0.00     0.081 A 
ATOM     32  C   UNL     1       7.028   1.413  -1.573  1.00  0.00    -0.017 A 
ATOM     33  N   UNL     1       6.421  -0.646  -0.695  1.00  0.00    -0.213 NA
ATOM     34  C   UNL     1       8.212   0.824  -1.980  1.00  0.00     0.033 A 
ATOM     35  C   UNL     1       7.697  -1.075  -0.821  1.00  0.00     0.220 A 
ATOM     36  N   UNL     1       8.662  -0.231  -1.258  1.00  0.00    -0.222 NA
ATOM     37  N   UNL     1       8.076  -2.380  -0.387  1.00  0.00    -0.368 N 
ENDBRANCH  27  31
ENDBRANCH  24  25
ENDBRANCH   4  24
TORSDOF 6

