REMARK SMILES COc1ccc(Cl)cc1[C@]1(F)C(=O)Nc2cc(C(F)(F)F)ccc21
REMARK SMILES IDX 10 1 11 2 12 3 13 4 14 5 15 6 16 7 17 8 22 9 23 10 24 11
REMARK SMILES IDX 9 12 3 13 4 14 5 15 8 16 6 17 7 18 2 19 1 20 18 21 19 22
REMARK SMILES IDX 20 23 21 24
REMARK H PARENT
REMARK Flexibility Score: inf
ROOT
ATOM      1  C   UNL     1      -0.937  -0.928  -0.318  1.00  0.00     0.244 C 
ATOM      2  F   UNL     1      -1.340  -1.595  -1.447  1.00  0.00    -0.222 F 
ATOM      3  C   UNL     1      -0.675  -1.944   0.750  1.00  0.00     0.271 C 
ATOM      4  O   UNL     1      -1.289  -2.101   1.849  1.00  0.00    -0.270 OA
ATOM      5  N   UNL     1       0.658  -2.387   0.465  1.00  0.00    -0.322 N 
ATOM      6  C   UNL     1       1.357  -1.369  -0.264  1.00  0.00     0.049 A 
ATOM      7  C   UNL     1       2.699  -1.042  -0.426  1.00  0.00    -0.026 A 
ATOM      8  C   UNL     1       3.159   0.260  -0.279  1.00  0.00     0.058 A 
ATOM      9  C   UNL     1       2.217   1.267  -0.443  1.00  0.00    -0.049 A 
ATOM     10  C   UNL     1       0.898   0.935  -0.725  1.00  0.00    -0.052 A 
ATOM     11  C   UNL     1       0.434  -0.356  -0.501  1.00  0.00     0.027 A 
ENDROOT
BRANCH   1  12
ATOM     12  C   UNL     1      -1.894   0.107   0.121  1.00  0.00     0.047 A 
ATOM     13  C   UNL     1      -3.121  -0.303   0.616  1.00  0.00     0.126 A 
ATOM     14  C   UNL     1      -3.903   0.693   1.188  1.00  0.00    -0.018 A 
ATOM     15  C   UNL     1      -3.468   2.012   1.225  1.00  0.00    -0.040 A 
ATOM     16  C   UNL     1      -1.769   1.409  -0.349  1.00  0.00    -0.032 A 
ATOM     17  C   UNL     1      -2.466   2.385   0.338  1.00  0.00     0.041 A 
ATOM     18  Cl  UNL     1      -2.207   4.056  -0.127  1.00  0.00    -0.084 Cl
BRANCH  13  19
ATOM     19  O   UNL     1      -3.664  -1.556   0.317  1.00  0.00    -0.496 OA
ATOM     20  C   UNL     1      -4.097  -2.026  -0.170  1.00  0.00     0.078 C 
ENDBRANCH  13  19
ENDBRANCH   1  12
BRANCH   8  21
ATOM     21  C   UNL     1       4.552   0.574   0.153  1.00  0.00     0.416 C 
ATOM     22  F   UNL     1       5.225   1.200  -0.862  1.00  0.00    -0.166 F 
ATOM     23  F   UNL     1       4.491   1.345   1.308  1.00  0.00    -0.166 F 
ATOM     24  F   UNL     1       5.141  -0.636   0.509  1.00  0.00    -0.166 F 
ENDBRANCH   8  21
TORSDOF 3

