
     RDKit          3D

  9  8  0  0  0  0  0  0  0  0999 V2000
    4.1487   -0.7553    0.1855 C   0  0  0  0  0  0  0  0  0  0  0  0
    2.7516   -0.3319    0.5895 C   0  0  0  0  0  0  0  0  0  0  0  0
    2.4580    1.0994    0.1648 C   0  0  0  0  0  0  0  0  0  0  0  0
    1.0392    1.1744   -0.3875 C   0  0  0  0  0  0  0  0  0  0  0  0
    0.2853    0.0158    0.2047 C   0  0  0  0  0  0  0  0  0  0  0  0
   -1.1027   -0.1427   -0.3472 C   0  0  0  0  0  0  0  0  0  0  0  0
   -2.1199   -0.2600    0.7749 C   0  0  0  0  0  0  0  0  0  0  0  0
   -3.4621    0.1108    0.2141 C   0  0  0  0  0  0  0  0  0  0  0  0
   -3.9980   -0.9104   -0.5549 O   0  0  0  0  0  0  0  0  0  0  0  0
  1  2  1  0
  2  3  1  0
  3  4  1  0
  4  5  1  0
  5  6  1  0
  6  7  1  0
  7  8  1  0
  8  9  1  0
M  END
>  <zinc_id>  (1) 
ZINC000001532735

>  <smiles>  (1) 
CCCCCCCCO

$$$$
