
     RDKit          3D

 31 35  0  0  0  0  0  0  0  0999 V2000
   -4.4032    1.5216    3.5507 C   0  0  0  0  0  0  0  0  0  0  0  0
   -5.2867    1.3109    2.6041 C   0  0  0  0  0  0  0  0  0  0  0  0
   -4.9672    0.3627    1.6513 C   0  0  0  0  0  0  0  0  0  0  0  0
   -3.6457   -0.0664    1.5231 C   0  0  0  0  0  0  0  0  0  0  0  0
   -3.4156   -1.0136    0.4571 C   0  0  0  0  0  0  0  0  0  0  0  0
   -2.1831   -1.3256    0.0557 O   0  0  0  0  0  0  0  0  0  0  0  0
   -1.1696   -0.4007    0.7019 C   0  0  2  0  0  0  0  0  0  0  0  0
   -0.9327    0.4340   -0.7037 C   0  0  0  0  0  0  0  0  0  0  0  0
    0.2450    1.3364   -0.3666 C   0  0  0  0  0  0  0  0  0  0  0  0
    1.0116    0.7143    0.7856 C   0  0  0  0  0  0  0  0  0  0  0  0
    1.2659   -0.6567    0.4848 N   0  0  0  0  0  0  0  0  0  0  0  0
    2.1787   -1.3447    1.3124 C   0  0  0  0  0  0  0  0  0  0  0  0
    3.4778   -0.7388    1.6026 C   0  0  0  0  0  0  0  0  0  0  0  0
    4.3181   -0.3587    0.4691 C   0  0  0  0  0  0  0  0  0  0  0  0
    4.1839    0.9026   -0.0852 C   0  0  0  0  0  0  0  0  0  0  0  0
    5.2131    1.4955   -0.7787 C   0  0  0  0  0  0  0  0  0  0  0  0
    6.2866    0.7136   -1.1669 C   0  0  0  0  0  0  0  0  0  0  0  0
    6.1807   -0.6655   -1.0429 C   0  0  0  0  0  0  0  0  0  0  0  0
    5.2909   -1.1687   -0.1018 C   0  0  0  0  0  0  0  0  0  0  0  0
    7.0181   -1.2451   -2.0002 O   0  0  0  0  0  0  0  0  0  0  0  0
    7.7786   -0.1959   -2.5950 C   0  0  0  0  0  0  0  0  0  0  0  0
    7.5291    0.9093   -1.7304 O   0  0  0  0  0  0  0  0  0  0  0  0
    0.0681   -1.4457    0.3702 C   0  0  0  0  0  0  0  0  0  0  0  0
   -4.3740   -0.8674   -0.6444 C   0  0  0  0  0  0  0  0  0  0  0  0
   -4.9037   -1.9868   -1.2708 C   0  0  0  0  0  0  0  0  0  0  0  0
   -5.7329   -1.7919   -2.3660 C   0  0  0  0  0  0  0  0  0  0  0  0
   -5.4914   -0.6706   -3.1345 C   0  0  0  0  0  0  0  0  0  0  0  0
   -4.9826    0.4611   -2.5570 C   0  0  0  0  0  0  0  0  0  0  0  0
   -4.3697    0.3337   -1.3410 C   0  0  0  0  0  0  0  0  0  0  0  0
   -2.9899   -0.1092    2.7478 C   0  0  0  0  0  0  0  0  0  0  0  0
   -3.1985    0.9938    3.5686 C   0  0  0  0  0  0  0  0  0  0  0  0
  1  2  2  0
  2  3  1  0
  3  4  2  0
  4  5  1  0
  5  6  1  0
  7  6  1  6
  7  8  1  0
  8  9  1  0
  9 10  1  0
 10 11  1  0
 11 12  1  0
 12 13  1  0
 13 14  1  0
 14 15  2  0
 15 16  1  0
 16 17  2  0
 17 18  1  0
 18 19  2  0
 18 20  1  0
 20 21  1  0
 21 22  1  0
 11 23  1  0
  5 24  1  0
 24 25  2  0
 25 26  1  0
 26 27  2  0
 27 28  1  0
 28 29  2  0
  4 30  1  0
 30 31  2  0
 31  1  1  0
 23  7  1  0
 29 24  1  0
 19 14  1  0
 22 17  1  0
M  END
>  <zinc_id>  (1) 
ZINC000003802222

>  <smiles>  (1) 
c1ccc(C(O[C@@H]2CCCN(CCc3ccc4c(c3)OCO4)C2)c2ccccc2)cc1

$$$$
