REMARK SMILES CN1C(=O)N(c2cc(Cl)cc(Cl)c2)C(=O)[C@]12CN(Cc1cc(C(=O)O)cs1)C[C@H]2c1ccc(C#N)cc1
REMARK SMILES IDX 1 1 2 2 3 3 4 4 5 5 14 6 15 7 16 8 17 9 18 10 28 11 29 12
REMARK SMILES IDX 6 13 7 14 13 15 8 16 11 17 9 18 10 19 12 20 30 21 31 22
REMARK SMILES IDX 37 23 32 24 36 25 33 26 34 27 35 28 19 29 20 30 21 31 27 32
REMARK SMILES IDX 22 33 26 34 23 35 24 36 25 37
REMARK H PARENT
REMARK Flexibility Score: inf
ROOT
ATOM      1  C   UNL     1       0.148   1.425   2.311  1.00  0.00     0.012 C 
ATOM      2  N   UNL     1      -0.562   0.811   1.225  1.00  0.00    -0.310 N 
ATOM      3  C   UNL     1      -1.972   0.539   1.259  1.00  0.00     0.332 C 
ATOM      4  O   UNL     1      -2.744   0.811   2.229  1.00  0.00    -0.248 OA
ATOM      5  N   UNL     1      -2.364  -0.103   0.037  1.00  0.00    -0.230 N 
ATOM      6  C   UNL     1      -1.223   0.049  -0.821  1.00  0.00     0.263 C 
ATOM      7  O   UNL     1      -1.349  -0.101  -2.074  1.00  0.00    -0.271 OA
ATOM      8  C   UNL     1      -0.090   0.205   0.052  1.00  0.00     0.144 C 
ATOM      9  C   UNL     1       0.850  -0.932   0.158  1.00  0.00     0.032 C 
ATOM     10  N   UNL     1       1.634  -0.968  -1.054  1.00  0.00    -0.295 NA
ATOM     11  C   UNL     1       1.179   0.127  -1.900  1.00  0.00     0.008 C 
ATOM     12  C   UNL     1       1.020   1.207  -0.646  1.00  0.00     0.030 C 
ENDROOT
BRANCH   5  13
ATOM     13  C   UNL     1      -3.468  -1.005  -0.106  1.00  0.00     0.057 A 
ATOM     14  C   UNL     1      -3.443  -2.291   0.423  1.00  0.00    -0.019 A 
ATOM     15  C   UNL     1      -4.719  -0.580  -0.536  1.00  0.00    -0.019 A 
ATOM     16  C   UNL     1      -4.562  -2.972   0.813  1.00  0.00     0.044 A 
ATOM     17  C   UNL     1      -5.807  -1.438  -0.527  1.00  0.00     0.044 A 
ATOM     18  Cl  UNL     1      -4.555  -4.260   1.992  1.00  0.00    -0.084 Cl
ATOM     19  C   UNL     1      -5.780  -2.542   0.315  1.00  0.00    -0.025 A 
ATOM     20  Cl  UNL     1      -7.335  -1.059  -1.268  1.00  0.00    -0.084 Cl
ENDBRANCH   5  13
BRANCH  12  21
ATOM     21  C   UNL     1      -0.095   2.095  -1.453  1.00  0.00    -0.041 A 
ATOM     22  C   UNL     1       0.381   2.559  -2.673  1.00  0.00    -0.057 A 
ATOM     23  C   UNL     1      -0.699   3.050  -0.640  1.00  0.00    -0.057 A 
ATOM     24  C   UNL     1       0.429   3.911  -2.993  1.00  0.00    -0.044 A 
ATOM     25  C   UNL     1      -0.755   4.383  -1.040  1.00  0.00    -0.044 A 
ATOM     26  C   UNL     1       0.069   4.867  -2.050  1.00  0.00     0.052 A 
BRANCH  26  27
ATOM     27  C   UNL     1       0.876   6.056  -1.878  1.00  0.00     0.099 C 
ATOM     28  N   UNL     1       1.454   7.063  -1.746  1.00  0.00    -0.192 NA
ENDBRANCH  26  27
ENDBRANCH  12  21
BRANCH  10  29
ATOM     29  C   UNL     1       3.024  -0.725  -0.781  1.00  0.00     0.033 C 
BRANCH  29  30
ATOM     30  C   UNL     1       3.547  -1.730   0.188  1.00  0.00     0.019 A 
ATOM     31  C   UNL     1       4.878  -2.007   0.478  1.00  0.00    -0.032 A 
ATOM     32  S   UNL     1       2.793  -3.053   0.977  1.00  0.00    -0.147 S 
ATOM     33  C   UNL     1       5.014  -2.523   1.743  1.00  0.00     0.070 A 
ATOM     34  C   UNL     1       4.110  -3.560   1.955  1.00  0.00     0.006 A 
BRANCH  33  35
ATOM     35  C   UNL     1       6.262  -2.480   2.520  1.00  0.00     0.336 C 
ATOM     36  O   UNL     1       6.828  -3.522   2.934  1.00  0.00    -0.246 OA
ATOM     37  O   UNL     1       7.021  -1.308   2.577  1.00  0.00    -0.478 OA
ENDBRANCH  33  35
ENDBRANCH  29  30
ENDBRANCH  10  29
TORSDOF 6

