
     RDKit          3D

 28 31  0  0  0  0  0  0  0  0999 V2000
   -6.9227   -0.7546    1.3454 C   0  0  0  0  0  0  0  0  0  0  0  0
   -6.1228    0.4131    0.8396 C   0  0  0  0  0  0  0  0  0  0  0  0
   -6.0241    1.4477    1.9252 C   0  0  0  0  0  0  0  0  0  0  0  0
   -6.7688    1.0681   -0.3629 C   0  0  0  0  0  0  0  0  0  0  0  0
   -5.6179    1.6095   -1.0638 N   0  0  0  0  0  0  0  0  0  0  0  0
   -4.5282    0.7076   -0.8393 C   0  0  0  0  0  0  0  0  0  0  0  0
   -3.2592    0.6162   -1.3975 C   0  0  0  0  0  0  0  0  0  0  0  0
   -2.3712   -0.3925   -1.0403 C   0  0  0  0  0  0  0  0  0  0  0  0
   -0.9694   -0.0935   -1.0259 N   0  0  0  0  0  0  0  0  0  0  0  0
   -0.0558   -0.7574   -0.1463 C   0  0  0  0  0  0  0  0  0  0  0  0
   -0.3670   -1.9562    0.1282 O   0  0  0  0  0  0  0  0  0  0  0  0
    0.9293   -0.0166    0.6541 C   0  0  0  0  0  0  0  0  0  0  0  0
    0.5283    0.7794    1.7223 C   0  0  0  0  0  0  0  0  0  0  0  0
    1.3225    1.0330    2.8053 C   0  0  0  0  0  0  0  0  0  0  0  0
    2.5681    0.4479    2.8989 C   0  0  0  0  0  0  0  0  0  0  0  0
    2.8979   -0.4535    1.9487 N   0  0  0  0  0  0  0  0  0  0  0  0
    2.1840   -0.5954    0.8052 C   0  0  0  0  0  0  0  0  0  0  0  0
    2.7963   -1.0892   -0.3919 N   0  0  0  0  0  0  0  0  0  0  0  0
    3.5493   -0.1096   -1.1589 C   0  0  0  0  0  0  0  0  0  0  0  0
    5.0056   -0.2317   -0.9730 C   0  0  0  0  0  0  0  0  0  0  0  0
    5.6176   -0.5216    0.2279 C   0  0  0  0  0  0  0  0  0  0  0  0
    6.9096   -0.1589    0.5329 C   0  0  0  0  0  0  0  0  0  0  0  0
    7.5727    0.6230   -0.3421 N   0  0  0  0  0  0  0  0  0  0  0  0
    7.1124    0.7045   -1.6029 C   0  0  0  0  0  0  0  0  0  0  0  0
    5.8380    0.2807   -1.9610 C   0  0  0  0  0  0  0  0  0  0  0  0
   -2.9175   -1.3939   -0.2462 C   0  0  0  0  0  0  0  0  0  0  0  0
   -4.0921   -1.1911    0.4682 C   0  0  0  0  0  0  0  0  0  0  0  0
   -4.8147   -0.0149    0.3123 C   0  0  0  0  0  0  0  0  0  0  0  0
  1  2  1  0
  2  3  1  0
  2  4  1  0
  4  5  1  0
  5  6  1  0
  6  7  2  0
  7  8  1  0
  8  9  1  0
  9 10  1  0
 10 11  2  0
 10 12  1  0
 12 13  2  0
 13 14  1  0
 14 15  2  0
 15 16  1  0
 16 17  2  0
 17 18  1  0
 18 19  1  0
 19 20  1  0
 20 21  2  0
 21 22  1  0
 22 23  2  0
 23 24  1  0
 24 25  2  0
  8 26  2  0
 26 27  1  0
 27 28  2  0
 28  2  1  0
 28  6  1  0
 17 12  1  0
 25 20  1  0
M  END
>  <zinc_id>  (1) 
ZINC000018710082

>  <smiles>  (1) 
CC1(C)CNc2cc(NC(=O)c3cccnc3NCc3ccncc3)ccc21

$$$$
