
     RDKit          3D

 43 45  0  0  0  0  0  0  0  0999 V2000
   11.3664    0.6191    0.5990 C   0  0  0  0  0  0  0  0  0  0  0  0
   10.0976    1.2517    0.4860 O   0  0  0  0  0  0  0  0  0  0  0  0
    9.0202    0.5675   -0.0311 C   0  0  0  0  0  0  0  0  0  0  0  0
    7.7664    0.6540    0.5613 C   0  0  0  0  0  0  0  0  0  0  0  0
    6.6795    0.0140   -0.0122 C   0  0  0  0  0  0  0  0  0  0  0  0
    5.2964    0.3985    0.2915 C   0  0  0  0  0  0  0  0  0  0  0  0
    5.1162    1.6277    0.5463 O   0  0  0  0  0  0  0  0  0  0  0  0
    4.2871   -0.3015   -0.3382 O   0  0  0  0  0  0  0  0  0  0  0  0
    2.9929    0.2423   -0.5842 C   0  0  0  0  0  0  0  0  0  0  0  0
    2.0548   -0.9547   -0.6906 C   0  0  0  0  0  0  0  0  0  0  0  0
    1.3745   -1.0653    0.6687 C   0  0  0  0  0  0  0  0  0  0  0  0
    0.9290    0.2599    1.0093 N   0  0  0  0  0  0  0  0  0  0  0  0
    0.0803    0.7871   -0.0226 C   0  0  0  0  0  0  0  0  0  0  0  0
   -1.2408    0.0946   -0.1455 C   0  0  0  0  0  0  0  0  0  0  0  0
   -1.3455   -1.1862    0.6222 C   0  0  0  0  0  0  0  0  0  0  0  0
   -1.5393   -1.0187    2.0321 N   0  0  0  0  0  0  0  0  0  0  0  0
   -2.5790   -0.1010    2.3906 C   0  0  0  0  0  0  0  0  0  0  0  0
   -2.1652    1.3423    2.3580 C   0  0  0  0  0  0  0  0  0  0  0  0
   -3.4325    2.1773    2.3166 C   0  0  0  0  0  0  0  0  0  0  0  0
   -4.5879    1.3612    2.1577 O   0  0  0  0  0  0  0  0  0  0  0  0
   -4.8977    0.8430    0.9184 C   0  0  0  0  0  0  0  0  0  0  0  0
   -4.2427    1.2861   -0.0701 O   0  0  0  0  0  0  0  0  0  0  0  0
   -6.2176    0.2548    0.6623 C   0  0  0  0  0  0  0  0  0  0  0  0
   -7.3125    0.8047    1.3029 C   0  0  0  0  0  0  0  0  0  0  0  0
   -8.5473    0.8574    0.6680 C   0  0  0  0  0  0  0  0  0  0  0  0
   -9.6197    1.3491    1.3811 O   0  0  0  0  0  0  0  0  0  0  0  0
  -10.0403    0.5889    2.5104 C   0  0  0  0  0  0  0  0  0  0  0  0
   -8.7264    0.2067   -0.5405 C   0  0  0  0  0  0  0  0  0  0  0  0
   -9.7805    0.5903   -1.3393 O   0  0  0  0  0  0  0  0  0  0  0  0
   -9.6142    0.9095   -2.7194 C   0  0  0  0  0  0  0  0  0  0  0  0
   -7.7234   -0.6539   -0.9430 C   0  0  0  0  0  0  0  0  0  0  0  0
   -7.9675   -1.4529   -2.0425 O   0  0  0  0  0  0  0  0  0  0  0  0
   -8.3230   -2.8140   -1.9619 C   0  0  0  0  0  0  0  0  0  0  0  0
   -6.4187   -0.4267   -0.5297 C   0  0  0  0  0  0  0  0  0  0  0  0
   -0.3270   -0.8734    2.7863 C   0  0  0  0  0  0  0  0  0  0  0  0
    0.3816    0.3713    2.3329 C   0  0  0  0  0  0  0  0  0  0  0  0
    6.9858   -0.9119   -1.0013 C   0  0  0  0  0  0  0  0  0  0  0  0
    8.1216   -0.7881   -1.7921 C   0  0  0  0  0  0  0  0  0  0  0  0
    8.1677   -1.3468   -3.0734 O   0  0  0  0  0  0  0  0  0  0  0  0
    7.1378   -0.9134   -3.9597 C   0  0  0  0  0  0  0  0  0  0  0  0
    9.0899    0.0874   -1.3331 C   0  0  0  0  0  0  0  0  0  0  0  0
   10.0530    0.5190   -2.2354 O   0  0  0  0  0  0  0  0  0  0  0  0
    9.6498    1.4386   -3.2357 C   0  0  0  0  0  0  0  0  0  0  0  0
  1  2  1  0
  2  3  1  0
  3  4  2  0
  4  5  1  0
  5  6  1  0
  6  7  2  0
  6  8  1  0
  8  9  1  0
  9 10  1  0
 10 11  1  0
 11 12  1  0
 12 13  1  0
 13 14  1  0
 14 15  1  0
 15 16  1  0
 16 17  1  0
 17 18  1  0
 18 19  1  0
 19 20  1  0
 20 21  1  0
 21 22  2  0
 21 23  1  0
 23 24  2  0
 24 25  1  0
 25 26  1  0
 26 27  1  0
 25 28  2  0
 28 29  1  0
 29 30  1  0
 28 31  1  0
 31 32  1  0
 32 33  1  0
 31 34  2  0
 16 35  1  0
 35 36  1  0
  5 37  2  0
 37 38  1  0
 38 39  1  0
 39 40  1  0
 38 41  2  0
 41 42  1  0
 42 43  1  0
 41  3  1  0
 36 12  1  0
 34 23  1  0
M  END
>  <zinc_id>  (1) 
ZINC000022454221

>  <smiles>  (1) 
COc1cc(C(=O)OCCCN2CCCN(CCCOC(=O)c3cc(OC)c(OC)c(OC)c3)CC2)cc(OC)c1OC

$$$$
