REMARK SMILES Cc1[nH]c(/C=C2\C(=O)Nc3ccccc32)c(C)c1CCC(=O)O
REMARK SMILES IDX 19 1 18 2 1 3 2 4 3 5 4 6 16 7 17 8 5 9 6 10 7 11 15 12 8 13
REMARK SMILES IDX 9 14 10 15 14 16 11 17 13 18 12 19 20 20 21 21 22 22 23 23
REMARK H PARENT
REMARK Flexibility Score: inf
ROOT
ATOM      1  C   UNL     1      -4.153  -1.136  -0.079  1.00  0.00    -0.015 C 
ENDROOT
BRANCH   1   2
ATOM      2  C   UNL     1      -2.708  -1.108   0.257  1.00  0.00    -0.023 A 
ATOM      3  C   UNL     1      -2.985  -1.012   2.770  1.00  0.00    -0.024 C 
ATOM      4  C   UNL     1      -2.183  -1.202   1.523  1.00  0.00     0.016 A 
ATOM      5  N   UNL     1      -0.871  -1.425   1.384  1.00  0.00    -0.359 N 
ATOM      6  C   UNL     1      -0.527  -0.826   0.217  1.00  0.00     0.042 A 
ATOM      7  C   UNL     1      -1.640  -0.950  -0.605  1.00  0.00    -0.023 A 
ATOM      8  C   UNL     1      -1.674  -1.175  -2.084  1.00  0.00    -0.037 C 
BRANCH   6   9
ATOM      9  C   UNL     1       0.829  -0.887  -0.345  1.00  0.00    -0.025 C 
ATOM     10  C   UNL     1       1.713   0.010   0.092  1.00  0.00     0.051 C 
ATOM     11  C   UNL     1       1.668   0.594   1.439  1.00  0.00     0.256 C 
ATOM     12  C   UNL     1       3.112   0.118  -0.342  1.00  0.00     0.011 A 
ATOM     13  O   UNL     1       0.624   1.142   1.907  1.00  0.00    -0.269 OA
ATOM     14  N   UNL     1       3.024   0.833   1.835  1.00  0.00    -0.321 N 
ATOM     15  C   UNL     1       3.887   0.404   0.776  1.00  0.00     0.049 A 
ATOM     16  C   UNL     1       3.707  -0.122  -1.575  1.00  0.00    -0.052 A 
ATOM     17  C   UNL     1       5.257   0.455   0.555  1.00  0.00    -0.038 A 
ATOM     18  C   UNL     1       4.921   0.513  -1.803  1.00  0.00    -0.061 A 
ATOM     19  C   UNL     1       5.692   0.850  -0.704  1.00  0.00    -0.060 A 
ENDBRANCH   6   9
ENDBRANCH   1   2
BRANCH   1  20
ATOM     20  C   UNL     1      -4.816   0.180   0.261  1.00  0.00     0.049 C 
BRANCH  20  21
ATOM     21  C   UNL     1      -4.395   1.259  -0.669  1.00  0.00     0.303 C 
ATOM     22  O   UNL     1      -3.514   2.053  -0.263  1.00  0.00    -0.252 OA
ATOM     23  O   UNL     1      -4.971   1.430  -1.927  1.00  0.00    -0.481 OA
ENDBRANCH  20  21
ENDBRANCH   1  20
TORSDOF 4

