REMARK SMILES O=C(CSc1nc2c(c(=O)n1-c1ccccc1)SCC2)Nc1ccc(-c2ccccc2)cn1
REMARK SMILES IDX 3 1 2 2 1 3 21 4 22 5 23 6 33 7 24 8 32 9 25 10 26 11 27 12
REMARK SMILES IDX 31 13 28 14 30 15 29 16 4 17 5 18 6 19 11 20 7 21 9 22 8 23
REMARK SMILES IDX 20 24 10 25 18 26 19 27 12 28 13 29 17 30 14 31 16 32 15 33
REMARK H PARENT
REMARK Flexibility Score: inf
ROOT
ATOM      1  C   UNL     1      -0.532   0.051  -0.882  1.00  0.00     0.081 C 
ENDROOT
BRANCH   1   2
ATOM      2  C   UNL     1       0.682   0.883  -0.790  1.00  0.00     0.236 C 
ATOM      3  O   UNL     1       1.497   0.828  -1.761  1.00  0.00    -0.274 OA
ATOM      4  N   UNL     1       1.234   1.327   0.449  1.00  0.00    -0.310 N 
BRANCH   4   5
ATOM      5  C   UNL     1       2.622   1.347   0.723  1.00  0.00     0.132 A 
ATOM      6  C   UNL     1       3.513   2.036  -0.059  1.00  0.00    -0.019 A 
ATOM      7  N   UNL     1       3.118   0.433   1.591  1.00  0.00    -0.238 NA
ATOM      8  C   UNL     1       4.798   1.529  -0.212  1.00  0.00    -0.049 A 
ATOM      9  C   UNL     1       4.372  -0.065   1.460  1.00  0.00     0.037 A 
ATOM     10  C   UNL     1       5.301   0.537   0.621  1.00  0.00     0.000 A 
BRANCH  10  11
ATOM     11  C   UNL     1       6.431  -0.227   0.100  1.00  0.00    -0.017 A 
ATOM     12  C   UNL     1       6.686  -0.312  -1.262  1.00  0.00    -0.054 A 
ATOM     13  C   UNL     1       7.127  -1.102   0.916  1.00  0.00    -0.054 A 
ATOM     14  C   UNL     1       7.880  -0.771  -1.757  1.00  0.00    -0.062 A 
ATOM     15  C   UNL     1       8.353  -1.558   0.447  1.00  0.00    -0.062 A 
ATOM     16  C   UNL     1       8.771  -1.319  -0.843  1.00  0.00    -0.062 A 
ENDBRANCH  10  11
ENDBRANCH   4   5
ENDBRANCH   1   2
BRANCH   1  17
ATOM     17  S   UNL     1      -1.182  -0.342   0.777  1.00  0.00    -0.078 SA
BRANCH  17  18
ATOM     18  C   UNL     1      -2.884  -0.884   0.681  1.00  0.00     0.176 A 
ATOM     19  N   UNL     1      -3.406  -1.682   1.627  1.00  0.00    -0.227 NA
ATOM     20  N   UNL     1      -3.614  -0.404  -0.355  1.00  0.00    -0.255 N 
ATOM     21  C   UNL     1      -4.732  -1.962   1.628  1.00  0.00     0.063 A 
ATOM     22  C   UNL     1      -4.817  -0.991  -0.536  1.00  0.00     0.272 A 
ATOM     23  C   UNL     1      -5.362  -1.871   0.392  1.00  0.00     0.095 A 
ATOM     24  C   UNL     1      -5.418  -2.952   2.496  1.00  0.00     0.001 C 
ATOM     25  O   UNL     1      -5.392  -0.775  -1.645  1.00  0.00    -0.268 OA
ATOM     26  S   UNL     1      -7.106  -2.076   0.796  1.00  0.00    -0.118 SA
ATOM     27  C   UNL     1      -6.882  -2.529   2.554  1.00  0.00     0.004 C 
BRANCH  20  28
ATOM     28  C   UNL     1      -3.251   0.823  -0.999  1.00  0.00     0.051 A 
ATOM     29  C   UNL     1      -3.852   1.074  -2.227  1.00  0.00    -0.038 A 
ATOM     30  C   UNL     1      -3.163   1.928  -0.159  1.00  0.00    -0.038 A 
ATOM     31  C   UNL     1      -3.835   2.364  -2.744  1.00  0.00    -0.060 A 
ATOM     32  C   UNL     1      -3.300   3.216  -0.601  1.00  0.00    -0.060 A 
ATOM     33  C   UNL     1      -3.662   3.447  -1.900  1.00  0.00    -0.062 A 
ENDBRANCH  20  28
ENDBRANCH  17  18
ENDBRANCH   1  17
TORSDOF 6

