
     RDKit          3D

 19 21  0  0  0  0  0  0  0  0999 V2000
   -1.2131   -2.6590    1.9670 C   0  0  0  0  0  0  0  0  0  0  0  0
   -1.2991   -2.9188    0.5687 O   0  0  0  0  0  0  0  0  0  0  0  0
   -1.5084   -1.8116   -0.2527 C   0  0  0  0  0  0  0  0  0  0  0  0
   -2.7943   -1.3043   -0.3910 C   0  0  0  0  0  0  0  0  0  0  0  0
   -3.0307    0.0513   -0.5125 C   0  0  0  0  0  0  0  0  0  0  0  0
   -1.9828    0.9417   -0.5234 C   0  0  0  0  0  0  0  0  0  0  0  0
   -2.0804    2.2018    0.0685 O   0  0  0  0  0  0  0  0  0  0  0  0
   -2.9444    2.4705    1.1628 C   0  0  0  0  0  0  0  0  0  0  0  0
   -0.7072    0.4267   -0.7208 C   0  0  0  0  0  0  0  0  0  0  0  0
   -0.4870   -0.9387   -0.5960 C   0  0  0  0  0  0  0  0  0  0  0  0
    0.7594   -1.4567   -0.5566 N   0  0  0  0  0  0  0  0  0  0  0  0
    1.8328   -0.6358   -0.4642 C   0  0  0  0  0  0  0  0  0  0  0  0
    3.0842   -1.1233   -0.1112 C   0  0  0  0  0  0  0  0  0  0  0  0
    3.9638   -0.3779    0.6637 C   0  0  0  0  0  0  0  0  0  0  0  0
    3.5679    0.8704    1.1309 C   0  0  0  0  0  0  0  0  0  0  0  0
    2.5499    1.4701    0.4026 C   0  0  0  0  0  0  0  0  0  0  0  0
    1.6823    0.7387   -0.3993 C   0  0  0  0  0  0  0  0  0  0  0  0
    0.4231    1.2218   -0.7354 C   0  0  0  0  0  0  0  0  0  0  0  0
    0.1840    2.8332   -0.7011 S   0  0  0  0  0  0  0  0  0  0  0  0
  1  2  1  0
  2  3  1  0
  3  4  2  0
  4  5  1  0
  5  6  2  0
  6  7  1  0
  7  8  1  0
  6  9  1  0
  9 10  2  0
 10 11  1  0
 11 12  1  0
 12 13  2  0
 13 14  1  0
 14 15  2  0
 15 16  1  0
 16 17  2  0
 17 18  1  0
 18 19  2  0
 10  3  1  0
 17 12  1  0
 18  9  1  0
M  END
>  <zinc_id>  (1) 
ZINC000006404102

>  <smiles>  (1) 
COc1ccc(OC)c2c(=S)c3ccccc3[nH]c12

$$$$
