REMARK SMILES Cc1ccc(NC(=O)c2cccc(N(C)C)c2)cc1NC(=O)c1ccc(O)cc1
REMARK SMILES IDX 1 1 2 2 3 3 4 4 5 5 18 6 19 7 20 8 21 9 22 10 23 11 24 12
REMARK SMILES IDX 29 13 25 14 28 15 26 16 27 17 6 18 7 19 8 20 9 21 10 22
REMARK SMILES IDX 17 23 11 24 13 25 12 26 14 27 15 28 16 29
REMARK H PARENT
REMARK Flexibility Score: inf
ROOT
ATOM      1  C   UNL     1       2.847  -3.818   0.215  1.00  0.00    -0.038 C 
ATOM      2  C   UNL     1       1.626  -2.962   0.125  1.00  0.00    -0.027 A 
ATOM      3  C   UNL     1       0.528  -3.178   0.949  1.00  0.00    -0.055 A 
ATOM      4  C   UNL     1      -0.674  -2.693   0.447  1.00  0.00    -0.038 A 
ATOM      5  C   UNL     1      -0.718  -1.860  -0.655  1.00  0.00     0.043 A 
ATOM      6  C   UNL     1       0.445  -1.206  -1.046  1.00  0.00    -0.015 A 
ATOM      7  C   UNL     1       1.625  -1.817  -0.663  1.00  0.00     0.046 A 
ENDROOT
BRANCH   7   8
ATOM      8  N   UNL     1       2.912  -1.298  -1.016  1.00  0.00    -0.322 N 
ATOM      9  C   UNL     1       3.307  -0.075  -0.383  1.00  0.00     0.255 C 
ATOM     10  O   UNL     1       2.477   0.875  -0.515  1.00  0.00    -0.269 OA
BRANCH   9  11
ATOM     11  C   UNL     1       4.679   0.151   0.085  1.00  0.00     0.040 A 
ATOM     12  C   UNL     1       5.769   0.084  -0.749  1.00  0.00    -0.046 A 
ATOM     13  C   UNL     1       4.825   0.887   1.256  1.00  0.00    -0.046 A 
ATOM     14  C   UNL     1       6.838   0.959  -0.604  1.00  0.00    -0.019 A 
ATOM     15  C   UNL     1       5.931   1.707   1.445  1.00  0.00    -0.019 A 
ATOM     16  C   UNL     1       6.862   1.879   0.435  1.00  0.00     0.115 A 
ATOM     17  O   UNL     1       7.550   3.080   0.291  1.00  0.00    -0.508 OA
ENDBRANCH   9  11
ENDBRANCH   7   8
BRANCH   5  18
ATOM     18  N   UNL     1      -2.014  -1.420  -1.069  1.00  0.00    -0.322 N 
ATOM     19  C   UNL     1      -2.558  -0.222  -0.541  1.00  0.00     0.255 C 
ATOM     20  O   UNL     1      -1.752   0.740  -0.394  1.00  0.00    -0.269 OA
BRANCH  19  21
ATOM     21  C   UNL     1      -3.954  -0.054  -0.176  1.00  0.00     0.042 A 
ATOM     22  C   UNL     1      -4.778  -1.123   0.158  1.00  0.00    -0.049 A 
ATOM     23  C   UNL     1      -4.487   1.201  -0.027  1.00  0.00    -0.026 A 
ATOM     24  C   UNL     1      -5.891  -0.928   0.967  1.00  0.00    -0.059 A 
ATOM     25  C   UNL     1      -5.701   1.436   0.599  1.00  0.00     0.037 A 
ATOM     26  C   UNL     1      -6.480   0.328   0.907  1.00  0.00    -0.039 A 
BRANCH  25  27
ATOM     27  N   UNL     1      -6.318   2.691   0.313  1.00  0.00    -0.378 N 
ATOM     28  C   UNL     1      -5.592   3.899   0.666  1.00  0.00     0.006 C 
ATOM     29  C   UNL     1      -7.303   2.736  -0.740  1.00  0.00     0.006 C 
ENDBRANCH  25  27
ENDBRANCH  19  21
ENDBRANCH   5  18
TORSDOF 5

