
     RDKit          3D

 22 23  0  0  0  0  0  0  0  0999 V2000
    4.4888    3.7195    0.4670 C   0  0  0  0  0  0  0  0  0  0  0  0
    5.4593    2.6318    0.0269 C   0  0  0  0  0  0  0  0  0  0  0  0
    4.7558    1.8075   -0.8960 O   0  0  0  0  0  0  0  0  0  0  0  0
    4.2207    0.5913   -0.5158 C   0  0  0  0  0  0  0  0  0  0  0  0
    4.7475   -0.0237    0.4389 O   0  0  0  0  0  0  0  0  0  0  0  0
    3.1368   -0.0337   -1.1720 N   0  0  0  0  0  0  0  0  0  0  0  0
    2.1971   -0.8488   -0.4611 C   0  0  0  0  0  0  0  0  0  0  0  0
    1.6013   -1.8859   -1.1688 C   0  0  0  0  0  0  0  0  0  0  0  0
    0.2799   -2.2341   -0.9203 C   0  0  0  0  0  0  0  0  0  0  0  0
   -0.4298   -1.6787    0.1372 C   0  0  0  0  0  0  0  0  0  0  0  0
   -1.3674   -2.5084    0.7881 N   0  0  0  0  0  0  0  0  0  0  0  0
   -2.6836   -2.1189    1.2014 C   0  0  0  0  0  0  0  0  0  0  0  0
   -3.3146   -1.1308    0.2711 C   0  0  0  0  0  0  0  0  0  0  0  0
   -2.7379    0.1321    0.2460 C   0  0  0  0  0  0  0  0  0  0  0  0
   -3.4577    1.2669   -0.0960 C   0  0  0  0  0  0  0  0  0  0  0  0
   -4.8224    1.2464    0.0957 C   0  0  0  0  0  0  0  0  0  0  0  0
   -5.5485    2.3615    0.3229 F   0  0  0  0  0  0  0  0  0  0  0  0
   -5.4545    0.0093    0.0916 C   0  0  0  0  0  0  0  0  0  0  0  0
   -4.6928   -1.1525    0.0945 C   0  0  0  0  0  0  0  0  0  0  0  0
    0.2663   -0.8068    0.9051 N   0  0  0  0  0  0  0  0  0  0  0  0
    1.4458   -0.2910    0.5594 C   0  0  0  0  0  0  0  0  0  0  0  0
    1.9098    0.9471    1.0922 N   0  0  0  0  0  0  0  0  0  0  0  0
  1  2  1  0
  2  3  1  0
  3  4  1  0
  4  5  2  0
  4  6  1  0
  6  7  1  0
  7  8  2  0
  8  9  1  0
  9 10  2  0
 10 11  1  0
 11 12  1  0
 12 13  1  0
 13 14  2  0
 14 15  1  0
 15 16  2  0
 16 17  1  0
 16 18  1  0
 18 19  2  0
 10 20  1  0
 20 21  2  0
 21 22  1  0
 21  7  1  0
 19 13  1  0
M  END
>  <zinc_id>  (1) 
ZINC000000001473

>  <smiles>  (1) 
CCOC(=O)Nc1ccc(NCc2ccc(F)cc2)nc1N

$$$$
