REMARK SMILES O=C1C(Cl)=C(NCCN2CCOCC2)C(=O)c2ncccc21
REMARK SMILES IDX 7 1 6 2 5 3 1 4 2 5 22 6 3 7 21 8 17 9 4 10 20 11 18 12
REMARK SMILES IDX 15 13 19 14 16 15 8 16 9 17 10 18 14 19 11 20 13 21 12 22
REMARK H PARENT
REMARK Flexibility Score: inf
ROOT
ATOM      1  C   UNL     1       1.439  -1.835  -0.651  1.00  0.00     0.028 C 
ENDROOT
BRANCH   1   2
ATOM      2  N   UNL     1       0.218  -1.922   0.104  1.00  0.00    -0.379 N 
BRANCH   2   3
ATOM      3  C   UNL     1      -0.785  -0.931   0.138  1.00  0.00     0.107 C 
ATOM      4  O   UNL     1      -0.846   2.562   0.699  1.00  0.00    -0.287 OA
ATOM      5  C   UNL     1      -1.237   1.432   0.301  1.00  0.00     0.208 C 
ATOM      6  C   UNL     1      -2.502   1.261  -0.424  1.00  0.00     0.053 A 
ATOM      7  C   UNL     1      -0.440   0.255   0.641  1.00  0.00     0.116 C 
ATOM      8  C   UNL     1      -3.370   2.338  -0.558  1.00  0.00    -0.047 A 
ATOM      9  C   UNL     1      -3.029  -0.008  -0.636  1.00  0.00     0.124 A 
ATOM     10  Cl  UNL     1       0.541   0.275   2.104  1.00  0.00    -0.078 Cl
ATOM     11  C   UNL     1      -4.739   2.127  -0.584  1.00  0.00    -0.043 A 
ATOM     12  N   UNL     1      -4.356  -0.215  -0.680  1.00  0.00    -0.252 NA
ATOM     13  C   UNL     1      -2.085  -1.127  -0.514  1.00  0.00     0.229 C 
ATOM     14  C   UNL     1      -5.198   0.822  -0.456  1.00  0.00     0.028 A 
ATOM     15  O   UNL     1      -2.474  -2.303  -0.793  1.00  0.00    -0.285 OA
ENDBRANCH   2   3
ENDBRANCH   1   2
BRANCH   1  16
ATOM     16  C   UNL     1       2.648  -2.249   0.163  1.00  0.00     0.016 C 
BRANCH  16  17
ATOM     17  N   UNL     1       3.720  -1.291   0.095  1.00  0.00    -0.297 NA
ATOM     18  C   UNL     1       4.207  -0.872   1.384  1.00  0.00     0.022 C 
ATOM     19  C   UNL     1       3.452  -0.189  -0.793  1.00  0.00     0.022 C 
ATOM     20  C   UNL     1       4.613   0.589   1.255  1.00  0.00     0.059 C 
ATOM     21  C   UNL     1       4.784   0.506  -1.051  1.00  0.00     0.059 C 
ATOM     22  O   UNL     1       5.437   0.775   0.162  1.00  0.00    -0.379 OA
ENDBRANCH  16  17
ENDBRANCH   1  16
TORSDOF 4

