REMARK SMILES CN(C)C(=O)C(CCN1CCC(O)(c2ccc(Cl)cc2)CC1)(c1ccccc1)c1ccccc1
REMARK SMILES IDX 7 1 6 2 4 3 1 4 2 5 3 6 5 7 23 8 24 9 28 10 25 11 27 12
REMARK SMILES IDX 26 13 29 14 30 15 34 16 31 17 33 18 32 19 8 20 9 21 10 22
REMARK SMILES IDX 22 23 11 24 21 25 12 26 13 27 14 28 15 29 20 30 16 31 19 32
REMARK SMILES IDX 17 33 18 34
REMARK H PARENT
REMARK Flexibility Score: inf
ROOT
ATOM      1  C   UNL     1      -0.775   0.097   0.564  1.00  0.00    -0.018 C 
ENDROOT
BRANCH   1   2
ATOM      2  C   UNL     1      -2.154  -0.135   0.006  1.00  0.00     0.100 C 
BRANCH   2   3
ATOM      3  C   UNL     1      -2.503   0.846  -1.037  1.00  0.00     0.237 C 
ATOM      4  C   UNL     1      -3.163   0.854  -3.382  1.00  0.00     0.009 C 
ATOM      5  N   UNL     1      -3.538   0.590  -1.995  1.00  0.00    -0.348 N 
ATOM      6  C   UNL     1      -4.875   1.035  -1.612  1.00  0.00     0.009 C 
ATOM      7  O   UNL     1      -2.357   2.070  -0.738  1.00  0.00    -0.273 OA
ENDBRANCH   2   3
BRANCH   2   8
ATOM      8  C   UNL     1      -2.136  -1.533  -0.527  1.00  0.00    -0.028 A 
ATOM      9  C   UNL     1      -1.771  -2.509   0.393  1.00  0.00    -0.058 A 
ATOM     10  C   UNL     1      -2.916  -1.949  -1.577  1.00  0.00    -0.058 A 
ATOM     11  C   UNL     1      -1.723  -3.829   0.040  1.00  0.00    -0.062 A 
ATOM     12  C   UNL     1      -2.894  -3.291  -1.931  1.00  0.00    -0.062 A 
ATOM     13  C   UNL     1      -2.376  -4.242  -1.089  1.00  0.00    -0.062 A 
ENDBRANCH   2   8
BRANCH   2  14
ATOM     14  C   UNL     1      -3.198  -0.114   1.077  1.00  0.00    -0.028 A 
ATOM     15  C   UNL     1      -3.475   1.090   1.679  1.00  0.00    -0.058 A 
ATOM     16  C   UNL     1      -4.096  -1.147   1.257  1.00  0.00    -0.058 A 
ATOM     17  C   UNL     1      -4.648   1.234   2.381  1.00  0.00    -0.062 A 
ATOM     18  C   UNL     1      -5.381  -0.920   1.716  1.00  0.00    -0.062 A 
ATOM     19  C   UNL     1      -5.686   0.337   2.181  1.00  0.00    -0.062 A 
ENDBRANCH   2  14
ENDBRANCH   1   2
BRANCH   1  20
ATOM     20  C   UNL     1      -0.496   1.523   0.920  1.00  0.00    -0.000 C 
BRANCH  20  21
ATOM     21  N   UNL     1       0.726   2.013   0.349  1.00  0.00    -0.303 NA
ATOM     22  C   UNL     1       1.223   1.262  -0.758  1.00  0.00     0.001 C 
ATOM     23  C   UNL     1       1.704   2.443   1.295  1.00  0.00     0.001 C 
ATOM     24  C   UNL     1       2.276   0.252  -0.415  1.00  0.00    -0.007 C 
ATOM     25  C   UNL     1       3.101   2.233   0.739  1.00  0.00    -0.007 C 
ATOM     26  C   UNL     1       3.282   0.743   0.587  1.00  0.00     0.092 C 
ATOM     27  O   UNL     1       2.994   0.152   1.827  1.00  0.00    -0.385 OA
BRANCH  26  28
ATOM     28  C   UNL     1       4.676   0.421   0.226  1.00  0.00    -0.016 A 
ATOM     29  C   UNL     1       5.141   0.803  -1.020  1.00  0.00    -0.055 A 
ATOM     30  C   UNL     1       5.469  -0.424   0.973  1.00  0.00    -0.055 A 
ATOM     31  C   UNL     1       6.468   0.666  -1.337  1.00  0.00    -0.043 A 
ATOM     32  C   UNL     1       6.784  -0.669   0.626  1.00  0.00    -0.043 A 
ATOM     33  C   UNL     1       7.293  -0.053  -0.496  1.00  0.00     0.041 A 
ATOM     34  Cl  UNL     1       9.025   0.153  -0.718  1.00  0.00    -0.084 Cl
ENDBRANCH  26  28
ENDBRANCH  20  21
ENDBRANCH   1  20
TORSDOF 7

