
     RDKit          2D

 21 25  0  0  0  0  0  0  0  0999 V2000
   -4.3124    0.5660    0.0000 C   0  0  0  0  0  0  0  0  0  0  0  0
   -3.2928   -0.5342    0.0000 C   0  0  0  0  0  0  0  0  0  0  0  0
   -3.9072   -1.9026    0.0000 C   0  0  0  0  0  0  0  0  0  0  0  0
   -1.8005   -0.3820    0.0000 C   0  0  0  0  0  0  0  0  0  0  0  0
   -0.9226   -1.5983    0.0000 C   0  0  0  0  0  0  0  0  0  0  0  0
   -2.4062   -1.1117    0.0000 O   0  0  0  0  0  0  0  0  0  0  0  0
   -2.5584    0.3805    0.0000 C   0  0  0  0  0  0  0  0  0  0  0  0
   -3.7535    1.2870    0.0000 O   0  0  0  0  0  0  0  0  0  0  0  0
   -1.1862    0.9864    0.0000 C   0  0  0  0  0  0  0  0  0  0  0  0
    0.3061    1.1385    0.0000 C   0  0  0  0  0  0  0  0  0  0  0  0
   -0.4399    2.4399    0.0000 O   0  0  0  0  0  0  0  0  0  0  0  0
    1.1915    2.3493    0.0000 C   0  0  0  0  0  0  0  0  0  0  0  0
    2.6167    1.8813    0.0000 C   0  0  0  0  0  0  0  0  0  0  0  0
    3.9134    1.1273    0.0000 O   0  0  0  0  0  0  0  0  0  0  0  0
    2.6120    0.3813    0.0000 C   0  0  0  0  0  0  0  0  0  0  0  0
    3.2179   -0.9909    0.0000 C   0  0  0  0  0  0  0  0  0  0  0  0
    4.6841   -1.3073    0.0000 O   0  0  0  0  0  0  0  0  0  0  0  0
    2.1000   -1.9911    0.0000 O   0  0  0  0  0  0  0  0  0  0  0  0
    0.5696   -1.4462    0.0000 C   0  0  0  0  0  0  0  0  0  0  0  0
    1.1840   -0.0777    0.0000 C   0  0  0  0  0  0  0  0  0  0  0  0
    2.1842   -1.1956    0.0000 C   0  0  0  0  0  0  0  0  0  0  0  0
  1  2  2  0
  2  3  1  0
  4  2  1  1
  4  5  1  0
  5  6  1  6
  6  7  1  0
  7  8  2  0
  9  7  1  1
  9 10  1  0
 10 11  1  1
 10 12  1  0
 13 12  1  1
 13 14  1  0
 15 14  1  1
 15 16  1  0
 16 17  2  0
 16 18  1  0
 19 18  1  6
 19 20  1  0
 20 21  1  1
  9  4  1  0
 20 10  1  0
 19  5  1  0
 15 13  1  0
 20 15  1  0
M  END
>  <zinc_id>  (1) 
ZINC000101103469

>  <smiles>  (1) 
C=C(C)[C@@H]1[C@H]2OC(=O)[C@H]1[C@]1(O)C[C@H]3O[C@]34C(=O)O[C@H]2[C@@]41C

$$$$
