
     RDKit          3D

 18 20  0  0  0  0  0  0  0  0999 V2000
    2.1085   -0.0472    2.0525 C   0  0  0  0  0  0  0  0  0  0  0  0
    2.2786    0.1466    0.5492 C   0  0  0  0  0  0  0  0  0  0  0  0
    3.2998    1.2052    0.2449 C   0  0  0  0  0  0  0  0  0  0  0  0
    2.6248   -1.1745   -0.0558 C   0  0  0  0  0  0  0  0  0  0  0  0
    3.7277   -1.3618   -0.6535 O   0  0  0  0  0  0  0  0  0  0  0  0
    1.3688   -1.7739   -0.3972 N   0  0  0  0  0  0  0  0  0  0  0  0
    0.3629   -0.7698   -0.2145 C   0  0  0  0  0  0  0  0  0  0  0  0
    0.9579    0.4164   -0.0813 C   0  0  0  0  0  0  0  0  0  0  0  0
    0.2402    1.5957   -0.5420 C   0  0  0  0  0  0  0  0  0  0  0  0
    0.8712    2.6534   -0.7262 O   0  0  0  0  0  0  0  0  0  0  0  0
   -1.2051    1.6232   -0.4053 C   0  0  0  0  0  0  0  0  0  0  0  0
   -1.8685    2.6951   -0.2743 O   0  0  0  0  0  0  0  0  0  0  0  0
   -1.8700    0.3194   -0.2932 C   0  0  0  0  0  0  0  0  0  0  0  0
   -3.2121    0.2936    0.0467 C   0  0  0  0  0  0  0  0  0  0  0  0
   -3.8184   -0.9308    0.2965 C   0  0  0  0  0  0  0  0  0  0  0  0
   -3.0095   -2.0107    0.6158 C   0  0  0  0  0  0  0  0  0  0  0  0
   -1.7526   -2.0432    0.0373 C   0  0  0  0  0  0  0  0  0  0  0  0
   -1.1041   -0.8369   -0.1995 C   0  0  0  0  0  0  0  0  0  0  0  0
  1  2  1  0
  2  3  1  0
  2  4  1  0
  4  5  2  0
  4  6  1  0
  6  7  1  0
  7  8  2  0
  8  9  1  0
  9 10  2  0
  9 11  1  0
 11 12  2  0
 11 13  1  0
 13 14  2  0
 14 15  1  0
 15 16  2  0
 16 17  1  0
 17 18  2  0
  8  2  1  0
 18 13  1  0
 18  7  1  0
M  END
>  <zinc_id>  (1) 
ZINC000100488484

>  <smiles>  (1) 
CC1(C)C(=O)NC2=C1C(=O)C(=O)c1ccccc12

$$$$
