
     RDKit          3D

 29 31  0  0  0  0  0  0  0  0999 V2000
   -6.1971    2.2054    0.0793 C   0  0  0  0  0  0  0  0  0  0  0  0
   -5.6425    1.4065    1.2383 C   0  0  0  0  0  0  0  0  0  0  0  0
   -5.3514   -0.0229    0.8777 C   0  0  0  0  0  0  0  0  0  0  0  0
   -6.1478   -0.5189   -0.2954 C   0  0  0  0  0  0  0  0  0  0  0  0
   -5.5467   -1.7888   -0.8329 C   0  0  0  0  0  0  0  0  0  0  0  0
   -3.9427   -0.3133    0.7780 N   0  0  0  0  0  0  0  0  0  0  0  0
   -3.4170   -1.4820    1.2193 C   0  0  0  0  0  0  0  0  0  0  0  0
   -2.0770   -1.5299    0.9382 C   0  0  0  0  0  0  0  0  0  0  0  0
   -1.7673   -0.2802    0.4221 C   0  0  0  0  0  0  0  0  0  0  0  0
   -2.9237    0.4745    0.3640 C   0  0  0  0  0  0  0  0  0  0  0  0
   -2.9678    1.5016   -0.5704 C   0  0  0  0  0  0  0  0  0  0  0  0
   -1.8143    1.8898   -1.2401 C   0  0  0  0  0  0  0  0  0  0  0  0
   -1.8699    2.6424   -2.4735 C   0  0  0  0  0  0  0  0  0  0  0  0
   -1.8823    2.9879   -3.5884 N   0  0  0  0  0  0  0  0  0  0  0  0
   -0.6112    1.3628   -0.7909 C   0  0  0  0  0  0  0  0  0  0  0  0
   -0.5495    0.1839   -0.0592 C   0  0  0  0  0  0  0  0  0  0  0  0
    0.6527   -0.6585   -0.0628 C   0  0  0  0  0  0  0  0  0  0  0  0
    1.0587   -1.1454    1.0345 O   0  0  0  0  0  0  0  0  0  0  0  0
    1.6798   -0.3572   -1.0159 N   0  0  0  0  0  0  0  0  0  0  0  0
    2.8061   -1.2338   -1.2021 C   0  0  0  0  0  0  0  0  0  0  0  0
    3.8350   -0.9175   -0.1739 C   0  0  0  0  0  0  0  0  0  0  0  0
    4.2426    0.4062   -0.0626 C   0  0  0  0  0  0  0  0  0  0  0  0
    3.2740    1.5101   -0.3541 C   0  0  0  0  0  0  0  0  0  0  0  0
    5.5441    0.6752    0.3439 C   0  0  0  0  0  0  0  0  0  0  0  0
    6.5082   -0.3255    0.3589 C   0  0  0  0  0  0  0  0  0  0  0  0
    7.9012   -0.0793   -0.1302 C   0  0  0  0  0  0  0  0  0  0  0  0
    6.0249   -1.5828    0.5055 N   0  0  0  0  0  0  0  0  0  0  0  0
    4.7808   -1.9042    0.0751 C   0  0  0  0  0  0  0  0  0  0  0  0
    4.4004   -3.1062    0.0103 O   0  0  0  0  0  0  0  0  0  0  0  0
  1  2  1  0
  2  3  1  0
  3  4  1  0
  4  5  1  0
  3  6  1  0
  6  7  1  0
  7  8  2  0
  8  9  1  0
  9 10  2  0
 10 11  1  0
 11 12  2  0
 12 13  1  0
 13 14  3  0
 12 15  1  0
 15 16  2  0
 16 17  1  0
 17 18  2  0
 17 19  1  0
 19 20  1  0
 20 21  1  0
 21 22  2  0
 22 23  1  0
 22 24  1  0
 24 25  2  0
 25 26  1  0
 25 27  1  0
 27 28  1  0
 28 29  2  0
 10  6  1  0
 28 21  1  0
 16  9  1  0
M  END
>  <zinc_id>  (1) 
ZINC000095930191

>  <smiles>  (1) 
CCC(CC)n1ccc2c(C(=O)NCc3c(C)cc(C)[nH]c3=O)cc(C#N)cc21

$$$$
