REMARK SMILES O=c1n(CCCN2CCN(c3cccc(Cl)c3)CC2)nc2ccccn12
REMARK SMILES IDX 5 1 4 2 3 3 1 4 2 5 26 6 25 7 21 8 20 9 24 10 22 11 23 12
REMARK SMILES IDX 6 13 7 14 8 15 19 16 9 17 18 18 10 19 11 20 12 21 17 22
REMARK SMILES IDX 13 23 15 24 14 25 16 26
REMARK H PARENT
REMARK Flexibility Score: inf
ROOT
ATOM      1  C   UNL     1      -1.401   1.554  -0.282  1.00  0.00    -0.020 C 
ENDROOT
BRANCH   1   2
ATOM      2  C   UNL     1      -1.758   0.346  -1.112  1.00  0.00     0.048 C 
BRANCH   2   3
ATOM      3  N   UNL     1      -3.063  -0.168  -0.708  1.00  0.00    -0.213 N 
ATOM      4  O   UNL     1      -2.637  -0.983   1.387  1.00  0.00    -0.246 OA
ATOM      5  C   UNL     1      -3.448  -0.579   0.514  1.00  0.00     0.350 A 
ATOM      6  N   UNL     1      -4.788  -0.657   0.594  1.00  0.00    -0.250 N 
ATOM      7  C   UNL     1      -5.610  -0.481   1.657  1.00  0.00     0.016 A 
ATOM      8  C   UNL     1      -5.254  -0.308  -0.617  1.00  0.00     0.161 A 
ATOM      9  N   UNL     1      -4.187  -0.153  -1.424  1.00  0.00    -0.150 NA
ATOM     10  C   UNL     1      -6.832   0.163   1.505  1.00  0.00    -0.045 A 
ATOM     11  C   UNL     1      -6.554   0.130  -0.826  1.00  0.00    -0.017 A 
ATOM     12  C   UNL     1      -7.423   0.038   0.253  1.00  0.00    -0.057 A 
ENDBRANCH   2   3
ENDBRANCH   1   2
BRANCH   1  13
ATOM     13  C   UNL     1       0.080   1.849  -0.312  1.00  0.00     0.000 C 
BRANCH  13  14
ATOM     14  N   UNL     1       0.806   0.650   0.024  1.00  0.00    -0.300 NA
ATOM     15  C   UNL     1       1.971   0.899   0.832  1.00  0.00     0.016 C 
ATOM     16  C   UNL     1       1.055  -0.206  -1.107  1.00  0.00     0.016 C 
ATOM     17  C   UNL     1       2.956   1.650  -0.057  1.00  0.00     0.031 C 
ATOM     18  C   UNL     1       2.258   0.189  -1.914  1.00  0.00     0.031 C 
ATOM     19  N   UNL     1       3.347   0.692  -1.089  1.00  0.00    -0.369 N 
BRANCH  19  20
ATOM     20  C   UNL     1       4.466  -0.139  -0.761  1.00  0.00     0.038 A 
ATOM     21  C   UNL     1       4.365  -1.507  -0.676  1.00  0.00    -0.039 A 
ATOM     22  C   UNL     1       5.609   0.458  -0.252  1.00  0.00    -0.020 A 
ATOM     23  C   UNL     1       5.312  -2.233   0.031  1.00  0.00    -0.059 A 
ATOM     24  C   UNL     1       6.576  -0.266   0.435  1.00  0.00     0.043 A 
ATOM     25  C   UNL     1       6.371  -1.611   0.675  1.00  0.00    -0.043 A 
ATOM     26  Cl  UNL     1       7.781   0.673   1.312  1.00  0.00    -0.084 Cl
ENDBRANCH  19  20
ENDBRANCH  13  14
ENDBRANCH   1  13
TORSDOF 5

