REMARK SMILES C=CC(=O)Nc1cccc(Nc2nc(Nc3ccc(OCCOC)cc3)ncc2F)c1
REMARK SMILES IDX 15 1 14 2 12 3 13 4 29 5 28 6 30 7 27 8 11 9 10 10 6 11 7 12
REMARK SMILES IDX 31 13 8 14 9 15 5 16 3 17 4 18 2 19 1 20 16 21 17 22 26 23
REMARK SMILES IDX 18 24 25 25 19 26 20 27 21 28 22 29 23 30 24 31
REMARK H PARENT
REMARK Flexibility Score: inf
ROOT
ATOM      1  N   UNL     1       2.220  -2.440   1.514  1.00  0.00    -0.324 N 
ENDROOT
BRANCH   1   2
ATOM      2  C   UNL     1       1.042  -1.931   0.891  1.00  0.00     0.229 A 
ATOM      3  C   UNL     1      -1.280  -1.518   0.906  1.00  0.00     0.172 A 
ATOM      4  N   UNL     1      -0.109  -1.721   1.534  1.00  0.00    -0.192 NA
ATOM      5  C   UNL     1      -1.295  -1.579  -0.482  1.00  0.00     0.184 A 
ATOM      6  C   UNL     1      -0.062  -1.372  -1.089  1.00  0.00     0.071 A 
ATOM      7  F   UNL     1      -2.347  -2.060  -1.182  1.00  0.00    -0.201 F 
ATOM      8  N   UNL     1       1.095  -1.575  -0.414  1.00  0.00    -0.218 NA
BRANCH   3   9
ATOM      9  N   UNL     1      -2.544  -1.628   1.559  1.00  0.00    -0.338 N 
BRANCH   9  10
ATOM     10  C   UNL     1      -3.690  -1.012   0.987  1.00  0.00     0.042 A 
ATOM     11  C   UNL     1      -4.582   0.856  -0.250  1.00  0.00     0.043 A 
ATOM     12  C   UNL     1      -5.692   0.059  -0.469  1.00  0.00    -0.038 A 
ATOM     13  C   UNL     1      -3.581   0.296   0.533  1.00  0.00    -0.015 A 
ATOM     14  C   UNL     1      -5.982  -0.990   0.389  1.00  0.00    -0.058 A 
ATOM     15  C   UNL     1      -4.979  -1.476   1.219  1.00  0.00    -0.038 A 
BRANCH  11  16
ATOM     16  N   UNL     1      -4.618   2.278  -0.350  1.00  0.00    -0.322 N 
ATOM     17  C   UNL     1      -5.783   3.000  -0.720  1.00  0.00     0.247 C 
ATOM     18  O   UNL     1      -6.566   2.413  -1.526  1.00  0.00    -0.270 OA
BRANCH  17  19
ATOM     19  C   UNL     1      -6.257   4.179   0.016  1.00  0.00    -0.004 C 
ATOM     20  C   UNL     1      -7.118   3.921   1.001  1.00  0.00    -0.094 C 
ENDBRANCH  17  19
ENDBRANCH  11  16
ENDBRANCH   9  10
ENDBRANCH   3   9
ENDBRANCH   1   2
BRANCH   1  21
ATOM     21  C   UNL     1       3.496  -1.882   1.241  1.00  0.00     0.041 A 
ATOM     22  C   UNL     1       3.771  -0.662   1.842  1.00  0.00    -0.035 A 
ATOM     23  C   UNL     1       4.435  -2.473   0.434  1.00  0.00    -0.035 A 
ATOM     24  C   UNL     1       4.909   0.009   1.449  1.00  0.00    -0.018 A 
ATOM     25  C   UNL     1       5.466  -1.707  -0.085  1.00  0.00    -0.018 A 
ATOM     26  C   UNL     1       5.870  -0.634   0.700  1.00  0.00     0.119 A 
BRANCH  26  27
ATOM     27  O   UNL     1       7.169  -0.127   0.652  1.00  0.00    -0.491 OA
BRANCH  27  28
ATOM     28  C   UNL     1       7.437   0.858  -0.328  1.00  0.00     0.112 C 
BRANCH  28  29
ATOM     29  C   UNL     1       6.420   1.968  -0.251  1.00  0.00     0.080 C 
BRANCH  29  30
ATOM     30  O   UNL     1       6.992   3.180   0.156  1.00  0.00    -0.381 OA
ATOM     31  C   UNL     1       6.166   3.770   1.127  1.00  0.00     0.036 C 
ENDBRANCH  29  30
ENDBRANCH  28  29
ENDBRANCH  27  28
ENDBRANCH  26  27
ENDBRANCH   1  21
TORSDOF 10

