
     RDKit          3D

 13 14  0  0  0  0  0  0  0  0999 V2000
   -2.4061   -1.3820   -0.0637 O   0  0  0  0  0  0  0  0  0  0  0  0
   -2.3735    0.1263    0.1233 C   0  0  1  0  0  0  0  0  0  0  0  0
   -1.5975    0.0249    1.5824 C   0  0  0  0  0  0  0  0  0  0  0  0
   -1.2207    1.4838    1.3554 C   0  0  0  0  0  0  0  0  0  0  0  0
   -0.3791    1.3924    0.3192 N   0  0  0  0  0  0  0  0  0  0  0  0
    0.9413    1.6851    0.2359 C   0  0  0  0  0  0  0  0  0  0  0  0
    1.8460    0.3875    0.7089 C   0  0  2  0  0  0  0  0  0  0  0  0
    3.0935    0.9147    0.0173 O   0  0  0  0  0  0  0  0  0  0  0  0
    1.3766   -0.4644   -0.7160 C   0  0  1  0  0  0  0  0  0  0  0  0
    2.0677   -1.7266   -0.2795 O   0  0  0  0  0  0  0  0  0  0  0  0
   -0.0777   -0.9301    0.0584 C   0  0  2  0  0  0  0  0  0  0  0  0
   -0.3848   -1.8753   -1.0791 O   0  0  0  0  0  0  0  0  0  0  0  0
   -0.8858    0.3636   -0.7090 C   0  0  1  0  0  0  0  0  0  0  0  0
  2  1  1  6
  2  3  1  0
  3  4  1  0
  4  5  1  0
  5  6  1  0
  6  7  1  0
  7  8  1  6
  7  9  1  0
  9 10  1  1
  9 11  1  0
 11 12  1  6
 11 13  1  0
 13  2  1  0
 13  5  1  1
M  END
>  <zinc_id>  (1) 
ZINC000003775177

>  <smiles>  (1) 
O[C@H]1CN2CC[C@H](O)[C@@H]2[C@@H](O)[C@@H]1O

$$$$
