
     RDKit          3D

 24 27  0  0  0  0  0  0  0  0999 V2000
   -0.4114   -2.8070   -2.7136 O   0  0  0  0  0  0  0  0  0  0  0  0
   -0.4435   -1.9869   -1.7476 C   0  0  0  0  0  0  0  0  0  0  0  0
   -0.0288   -0.6611   -1.7102 O   0  0  0  0  0  0  0  0  0  0  0  0
    0.0981   -0.2448   -0.3641 C   0  0  0  0  0  0  0  0  0  0  0  0
    1.5007    0.1537   -0.1556 C   0  0  0  0  0  0  0  0  0  0  0  0
    2.2541    0.5891   -1.2368 C   0  0  0  0  0  0  0  0  0  0  0  0
    3.5782    0.9079   -1.0493 C   0  0  0  0  0  0  0  0  0  0  0  0
    4.1131    0.9688    0.2291 C   0  0  0  0  0  0  0  0  0  0  0  0
    5.4667    0.6997    0.4542 O   0  0  0  0  0  0  0  0  0  0  0  0
    3.2015    1.0938    1.2545 C   0  0  0  0  0  0  0  0  0  0  0  0
    1.9057    0.6376    1.0806 C   0  0  0  0  0  0  0  0  0  0  0  0
   -0.8472    0.8216    0.0049 C   0  0  0  0  0  0  0  0  0  0  0  0
   -0.5018    1.9906    0.6448 C   0  0  0  0  0  0  0  0  0  0  0  0
   -1.4094    3.0389    0.6626 C   0  0  0  0  0  0  0  0  0  0  0  0
   -2.6381    2.9079    0.0368 C   0  0  0  0  0  0  0  0  0  0  0  0
   -3.2931    4.0274   -0.4866 O   0  0  0  0  0  0  0  0  0  0  0  0
   -3.0976    1.6263   -0.1358 C   0  0  0  0  0  0  0  0  0  0  0  0
   -2.1926    0.5765   -0.2319 C   0  0  0  0  0  0  0  0  0  0  0  0
   -0.2697   -1.4518    0.4416 C   0  0  0  0  0  0  0  0  0  0  0  0
   -0.5437   -1.6059    1.7863 C   0  0  0  0  0  0  0  0  0  0  0  0
   -1.2235   -2.7267    2.2500 C   0  0  0  0  0  0  0  0  0  0  0  0
   -2.1954   -3.2189    1.3889 C   0  0  0  0  0  0  0  0  0  0  0  0
   -2.0197   -3.0848    0.0182 C   0  0  0  0  0  0  0  0  0  0  0  0
   -1.0026   -2.2521   -0.4210 C   0  0  0  0  0  0  0  0  0  0  0  0
  1  2  2  0
  2  3  1  0
  3  4  1  0
  4  5  1  0
  5  6  2  0
  6  7  1  0
  7  8  2  0
  8  9  1  0
  8 10  1  0
 10 11  2  0
  4 12  1  0
 12 13  2  0
 13 14  1  0
 14 15  2  0
 15 16  1  0
 15 17  1  0
 17 18  2  0
  4 19  1  0
 19 20  2  0
 20 21  1  0
 21 22  2  0
 22 23  1  0
 23 24  2  0
 24  2  1  0
 11  5  1  0
 18 12  1  0
 24 19  1  0
M  END
>  <zinc_id>  (1) 
ZINC000003831317

>  <smiles>  (1) 
O=C1OC(c2ccc(O)cc2)(c2ccc(O)cc2)c2ccccc21

$$$$
