REMARK SMILES CCn1c(=O)[nH]c2ccccc21
REMARK SMILES IDX 3 1 12 2 11 3 10 4 9 5 8 6 7 7 6 8 4 9 5 10 2 11 1 12
REMARK H PARENT
REMARK Flexibility Score: inf
ROOT
ATOM      1  N   UNL     1       1.045  -0.236   0.025  1.00  0.00    -0.292 N 
ATOM      2  C   UNL     1      -0.291  -0.430   0.083  1.00  0.00     0.069 A 
ATOM      3  C   UNL     1      -1.107  -1.486   0.471  1.00  0.00    -0.036 A 
ATOM      4  C   UNL     1      -2.465  -1.469   0.193  1.00  0.00    -0.060 A 
ATOM      5  C   UNL     1      -3.027  -0.257  -0.115  1.00  0.00    -0.060 A 
ATOM      6  C   UNL     1      -2.245   0.803  -0.518  1.00  0.00    -0.036 A 
ATOM      7  C   UNL     1      -0.881   0.769  -0.303  1.00  0.00     0.066 A 
ATOM      8  N   UNL     1       0.042   1.738  -0.090  1.00  0.00    -0.306 N 
ATOM      9  C   UNL     1       1.205   1.084   0.144  1.00  0.00     0.326 A 
ATOM     10  O   UNL     1       2.312   1.650   0.251  1.00  0.00    -0.248 OA
ENDROOT
BRANCH   1  11
ATOM     11  C   UNL     1       1.998  -1.298  -0.192  1.00  0.00     0.025 C 
ATOM     12  C   UNL     1       3.414  -0.867   0.051  1.00  0.00    -0.047 C 
ENDBRANCH   1  11
TORSDOF 1

