
     RDKit          3D

 23 26  0  0  0  0  0  0  0  0999 V2000
    4.4989    0.3590    2.4117 O   0  0  0  0  0  0  0  0  0  0  0  0
    4.4910    1.6115    1.7849 C   0  0  0  0  0  0  0  0  0  0  0  0
    3.6482    1.5020    0.5527 C   0  0  0  0  0  0  0  0  0  0  0  0
    3.3788    2.4982   -0.3624 C   0  0  0  0  0  0  0  0  0  0  0  0
    2.2661    2.0737   -1.0713 C   0  0  0  0  0  0  0  0  0  0  0  0
    2.0360    0.7602   -0.6813 C   0  0  0  0  0  0  0  0  0  0  0  0
    0.7857    0.0275   -0.8897 C   0  0  0  0  0  0  0  0  0  0  0  0
   -0.3416    0.2878   -0.1872 N   0  0  0  0  0  0  0  0  0  0  0  0
   -1.1362   -0.7827   -0.1905 N   0  0  0  0  0  0  0  0  0  0  0  0
   -2.1772   -1.1029    0.7835 C   0  0  0  0  0  0  0  0  0  0  0  0
   -2.9467    0.1194    1.0818 C   0  0  0  0  0  0  0  0  0  0  0  0
   -2.5366    1.1202    1.9197 C   0  0  0  0  0  0  0  0  0  0  0  0
   -3.3593    2.2180    2.1354 C   0  0  0  0  0  0  0  0  0  0  0  0
   -4.5748    2.3732    1.4913 C   0  0  0  0  0  0  0  0  0  0  0  0
   -4.9453    1.3842    0.6080 C   0  0  0  0  0  0  0  0  0  0  0  0
   -4.0680    0.3768    0.3020 C   0  0  0  0  0  0  0  0  0  0  0  0
   -0.5512   -1.7009   -0.9943 C   0  0  0  0  0  0  0  0  0  0  0  0
   -1.0544   -2.8166   -1.6516 C   0  0  0  0  0  0  0  0  0  0  0  0
   -0.1200   -3.7036   -2.1720 C   0  0  0  0  0  0  0  0  0  0  0  0
    1.2252   -3.5232   -1.8819 C   0  0  0  0  0  0  0  0  0  0  0  0
    1.6842   -2.2215   -1.7190 C   0  0  0  0  0  0  0  0  0  0  0  0
    0.7299   -1.2860   -1.3377 C   0  0  0  0  0  0  0  0  0  0  0  0
    3.0671    0.4258    0.0681 O   0  0  0  0  0  0  0  0  0  0  0  0
  1  2  1  0
  2  3  1  0
  3  4  2  0
  4  5  1  0
  5  6  2  0
  6  7  1  0
  7  8  2  0
  8  9  1  0
  9 10  1  0
 10 11  1  0
 11 12  2  0
 12 13  1  0
 13 14  2  0
 14 15  1  0
 15 16  2  0
  9 17  1  0
 17 18  2  0
 18 19  1  0
 19 20  2  0
 20 21  1  0
 21 22  2  0
  6 23  1  0
 23  3  1  0
 22  7  1  0
 16 11  1  0
 22 17  1  0
M  END
>  <zinc_id>  (1) 
ZINC000001492386

>  <smiles>  (1) 
OCc1ccc(-c2nn(Cc3ccccc3)c3ccccc23)o1

$$$$
