
     RDKit          3D

 20 22  0  0  0  0  0  0  0  0999 V2000
    4.0366    3.0108    1.3294 C   0  0  0  0  0  0  0  0  0  0  0  0
    4.3983    1.6109    0.8561 C   0  0  0  0  0  0  0  0  0  0  0  0
    3.5365    1.3194   -0.3630 C   0  0  0  0  0  0  0  0  0  0  0  0
    2.3156    0.7771    0.0665 O   0  0  0  0  0  0  0  0  0  0  0  0
    2.0121   -0.5808    0.0374 C   0  0  0  0  0  0  0  0  0  0  0  0
    3.0073   -1.4983   -0.2719 C   0  0  0  0  0  0  0  0  0  0  0  0
    2.7302   -2.7052   -0.8632 C   0  0  0  0  0  0  0  0  0  0  0  0
    1.4527   -3.0084   -1.2823 C   0  0  0  0  0  0  0  0  0  0  0  0
    0.4422   -2.2264   -0.7746 C   0  0  0  0  0  0  0  0  0  0  0  0
    0.7279   -0.9579   -0.2865 C   0  0  0  0  0  0  0  0  0  0  0  0
   -0.3506    0.0158   -0.0894 C   0  0  0  0  0  0  0  0  0  0  0  0
   -0.9629    0.1860    1.1076 N   0  0  0  0  0  0  0  0  0  0  0  0
   -2.2956    0.4160    1.2039 C   0  0  0  0  0  0  0  0  0  0  0  0
   -3.2513    0.0802    2.1051 N   0  0  0  0  0  0  0  0  0  0  0  0
   -4.4186   -0.0247    1.4784 N   0  0  0  0  0  0  0  0  0  0  0  0
   -4.2782    0.1582    0.1835 N   0  0  0  0  0  0  0  0  0  0  0  0
   -3.0172    0.6327    0.0354 C   0  0  0  0  0  0  0  0  0  0  0  0
   -2.2467    0.9343   -1.0784 C   0  0  0  0  0  0  0  0  0  0  0  0
   -2.9247    1.1654   -2.2787 O   0  0  0  0  0  0  0  0  0  0  0  0
   -0.9135    0.6949   -1.1153 N   0  0  0  0  0  0  0  0  0  0  0  0
  1  2  1  0
  2  3  1  0
  3  4  1  0
  4  5  1  0
  5  6  2  0
  6  7  1  0
  7  8  2  0
  8  9  1  0
  9 10  2  0
 10 11  1  0
 11 12  2  0
 12 13  1  0
 13 14  2  0
 14 15  1  0
 15 16  1  0
 16 17  2  0
 17 18  1  0
 18 19  1  0
 18 20  2  0
 10  5  1  0
 20 11  1  0
 17 13  1  0
M  END
>  <zinc_id>  (1) 
ZINC000014953365

>  <smiles>  (1) 
CCCOc1ccccc1-c1nc(O)c2n[nH]nc2n1

$$$$
