REMARK SMILES O=C1Nc2c(ccc(Cl)c2Cl)/C1=N\O
REMARK SMILES IDX 1 1 2 2 3 3 4 4 5 5 6 6 7 7 8 8 9 9 10 10 11 11 12 12 13 13
REMARK SMILES IDX 14 14
REMARK H PARENT
REMARK Flexibility Score: inf
ROOT
ATOM      1  O   UNL     1      -3.287  -1.367  -0.164  1.00  0.00    -0.267 OA
ATOM      2  C   UNL     1      -2.105  -0.954  -0.252  1.00  0.00     0.278 C 
ATOM      3  N   UNL     1      -0.878  -1.692  -0.224  1.00  0.00    -0.319 N 
ATOM      4  C   UNL     1       0.218  -0.786  -0.404  1.00  0.00     0.071 A 
ATOM      5  C   UNL     1      -0.317   0.491  -0.533  1.00  0.00     0.035 A 
ATOM      6  C   UNL     1       0.562   1.540  -0.615  1.00  0.00    -0.049 A 
ATOM      7  C   UNL     1       1.915   1.416  -0.324  1.00  0.00    -0.041 A 
ATOM      8  C   UNL     1       2.355   0.201   0.183  1.00  0.00     0.061 A 
ATOM      9  Cl  UNL     1       3.675   0.124   1.343  1.00  0.00    -0.083 Cl
ATOM     10  C   UNL     1       1.578  -0.905  -0.132  1.00  0.00     0.083 A 
ATOM     11  Cl  UNL     1       2.296  -2.490   0.145  1.00  0.00    -0.080 Cl
ATOM     12  C   UNL     1      -1.739   0.462  -0.168  1.00  0.00     0.176 C 
ATOM     13  N   UNL     1      -2.438   1.370   0.444  1.00  0.00    -0.083 NA
ATOM     14  O   UNL     1      -1.836   2.590   0.701  1.00  0.00    -0.410 OA
ENDROOT
TORSDOF 0

