REMARK SMILES CCOc1ccc2nc(S(N)(=O)=O)sc2c1
REMARK SMILES IDX 4 1 5 2 6 3 7 4 8 5 9 6 14 7 15 8 16 9 3 10 2 11 1 12 10 13
REMARK SMILES IDX 11 14 12 15 13 16
REMARK H PARENT
REMARK Flexibility Score: inf
ROOT
ATOM      1  C   UNL     1      -2.817  -0.875  -0.255  1.00  0.00     0.120 A 
ATOM      2  C   UNL     1      -2.405  -0.914   1.073  1.00  0.00    -0.018 A 
ATOM      3  C   UNL     1      -1.090  -1.109   1.402  1.00  0.00    -0.031 A 
ATOM      4  C   UNL     1      -0.095  -0.740   0.500  1.00  0.00     0.083 A 
ATOM      5  N   UNL     1       1.218  -0.896   0.653  1.00  0.00    -0.224 NA
ATOM      6  C   UNL     1       1.956  -0.082  -0.104  1.00  0.00     0.225 A 
ATOM      7  S   UNL     1       0.955   0.023  -1.497  1.00  0.00    -0.101 S 
ATOM      8  C   UNL     1      -0.462  -0.697  -0.840  1.00  0.00     0.059 A 
ATOM      9  C   UNL     1      -1.795  -0.865  -1.198  1.00  0.00    -0.000 A 
ENDROOT
BRANCH   1  10
ATOM     10  O   UNL     1      -4.023  -0.198  -0.466  1.00  0.00    -0.494 OA
BRANCH  10  11
ATOM     11  C   UNL     1      -4.175   1.173  -0.102  1.00  0.00     0.085 C 
ATOM     12  C   UNL     1      -2.845   1.878  -0.313  1.00  0.00    -0.031 C 
ENDBRANCH  10  11
ENDBRANCH   1  10
BRANCH   6  13
ATOM     13  S   UNL     1       3.515   0.667   0.224  1.00  0.00     0.265 S 
ATOM     14  N   UNL     1       4.809  -0.214  -0.481  1.00  0.00    -0.223 NA
ATOM     15  O   UNL     1       3.522   2.090  -0.291  1.00  0.00    -0.205 OA
ATOM     16  O   UNL     1       3.730   0.760   1.696  1.00  0.00    -0.205 OA
ENDBRANCH   6  13
TORSDOF 3

