REMARK SMILES COc1cc(N2CCN(C)CC2)ccc1Nc1nccc(-c2cn(C)c3cnccc23)n1
REMARK SMILES IDX 16 1 15 2 3 3 4 4 5 5 14 6 13 7 2 8 1 9 6 10 7 11 12 12 8 13
REMARK SMILES IDX 11 14 9 15 10 16 17 17 18 18 32 19 19 20 21 21 20 22 22 23
REMARK SMILES IDX 23 24 31 25 24 26 26 27 30 28 25 29 27 30 29 31 28 32
REMARK H PARENT
REMARK Flexibility Score: inf
ROOT
ATOM      1  N   UNL     1       0.390  -1.269  -0.544  1.00  0.00    -0.321 N 
ENDROOT
BRANCH   1   2
ATOM      2  C   UNL     1       1.735  -1.316  -0.121  1.00  0.00     0.084 A 
ATOM      3  C   UNL     1       2.374  -0.181   0.332  1.00  0.00     0.144 A 
ATOM      4  C   UNL     1       3.705  -0.305   0.701  1.00  0.00     0.006 A 
ATOM      5  C   UNL     1       4.523  -1.308   0.195  1.00  0.00     0.041 A 
ATOM      6  C   UNL     1       2.524  -2.332  -0.631  1.00  0.00    -0.033 A 
ATOM      7  C   UNL     1       3.910  -2.250  -0.600  1.00  0.00    -0.036 A 
BRANCH   3   8
ATOM      8  O   UNL     1       1.718   1.054   0.340  1.00  0.00    -0.494 OA
ATOM      9  C   UNL     1       2.264   2.081   1.159  1.00  0.00     0.078 C 
ENDBRANCH   3   8
BRANCH   5  10
ATOM     10  N   UNL     1       5.912  -1.071  -0.069  1.00  0.00    -0.369 N 
ATOM     11  C   UNL     1       6.606  -0.329   0.983  1.00  0.00     0.031 C 
ATOM     12  C   UNL     1       6.218  -0.620  -1.425  1.00  0.00     0.031 C 
ATOM     13  C   UNL     1       6.326   1.139   0.683  1.00  0.00     0.016 C 
ATOM     14  C   UNL     1       7.323   0.402  -1.386  1.00  0.00     0.016 C 
ATOM     15  N   UNL     1       7.054   1.506  -0.504  1.00  0.00    -0.303 NA
ATOM     16  C   UNL     1       8.341   2.034  -0.055  1.00  0.00    -0.013 C 
ENDBRANCH   5  10
ENDBRANCH   1   2
BRANCH   1  17
ATOM     17  C   UNL     1      -0.715  -1.062   0.332  1.00  0.00     0.227 A 
ATOM     18  N   UNL     1      -0.577  -0.484   1.548  1.00  0.00    -0.221 NA
ATOM     19  N   UNL     1      -1.946  -1.034  -0.202  1.00  0.00    -0.213 NA
ATOM     20  C   UNL     1      -1.486   0.394   2.033  1.00  0.00     0.033 A 
ATOM     21  C   UNL     1      -2.909  -0.187   0.234  1.00  0.00     0.078 A 
ATOM     22  C   UNL     1      -2.663   0.626   1.334  1.00  0.00    -0.017 A 
BRANCH  21  23
ATOM     23  C   UNL     1      -4.235  -0.224  -0.395  1.00  0.00     0.026 A 
ATOM     24  C   UNL     1      -4.969  -1.381  -0.623  1.00  0.00     0.014 A 
ATOM     25  C   UNL     1      -5.150   0.819  -0.469  1.00  0.00     0.012 A 
ATOM     26  N   UNL     1      -6.293  -1.097  -0.580  1.00  0.00    -0.349 N 
ATOM     27  C   UNL     1      -6.411   0.253  -0.607  1.00  0.00     0.067 A 
ATOM     28  C   UNL     1      -5.082   2.076   0.118  1.00  0.00    -0.034 A 
ATOM     29  C   UNL     1      -7.356  -2.086  -0.440  1.00  0.00     0.011 C 
ATOM     30  C   UNL     1      -7.520   1.029  -0.295  1.00  0.00     0.051 A 
ATOM     31  C   UNL     1      -6.205   2.802   0.427  1.00  0.00     0.028 A 
ATOM     32  N   UNL     1      -7.407   2.322   0.027  1.00  0.00    -0.263 NA
ENDBRANCH  21  23
ENDBRANCH   1  17
TORSDOF 5

