REMARK SMILES COc1ccc(OC)c2c(=S)c3ccccc3[nH]c12
REMARK SMILES IDX 3 1 4 2 5 3 6 4 9 5 19 6 18 7 17 8 16 9 15 10 14 11 13 12
REMARK SMILES IDX 12 13 10 14 11 15 2 16 1 17 7 18 8 19
REMARK H PARENT
REMARK Flexibility Score: inf
ROOT
ATOM      1  C   UNL     1      -1.508  -1.812  -0.253  1.00  0.00     0.143 A 
ATOM      2  C   UNL     1      -2.794  -1.304  -0.391  1.00  0.00    -0.014 A 
ATOM      3  C   UNL     1      -3.031   0.051  -0.512  1.00  0.00    -0.015 A 
ATOM      4  C   UNL     1      -1.983   0.942  -0.523  1.00  0.00     0.129 A 
ATOM      5  C   UNL     1      -0.707   0.427  -0.721  1.00  0.00     0.063 A 
ATOM      6  C   UNL     1      -0.487  -0.939  -0.596  1.00  0.00     0.094 A 
ATOM      7  N   UNL     1       0.759  -1.457  -0.557  1.00  0.00    -0.351 N 
ATOM      8  C   UNL     1       1.833  -0.636  -0.464  1.00  0.00     0.047 A 
ATOM      9  C   UNL     1       3.084  -1.123  -0.111  1.00  0.00    -0.038 A 
ATOM     10  C   UNL     1       3.964  -0.378   0.664  1.00  0.00    -0.060 A 
ATOM     11  C   UNL     1       3.568   0.870   1.131  1.00  0.00    -0.061 A 
ATOM     12  C   UNL     1       2.550   1.470   0.403  1.00  0.00    -0.051 A 
ATOM     13  C   UNL     1       1.682   0.739  -0.399  1.00  0.00     0.017 A 
ATOM     14  C   UNL     1       0.423   1.222  -0.735  1.00  0.00     0.060 A 
ATOM     15  S   UNL     1       0.184   2.833  -0.701  1.00  0.00    -0.078 S 
ENDROOT
BRANCH   1  16
ATOM     16  O   UNL     1      -1.299  -2.919   0.569  1.00  0.00    -0.495 OA
ATOM     17  C   UNL     1      -1.213  -2.659   1.967  1.00  0.00     0.078 C 
ENDBRANCH   1  16
BRANCH   4  18
ATOM     18  O   UNL     1      -2.080   2.202   0.069  1.00  0.00    -0.496 OA
ATOM     19  C   UNL     1      -2.944   2.470   1.163  1.00  0.00     0.078 C 
ENDBRANCH   4  18
TORSDOF 2

