
     RDKit          3D

 40 44  0  0  0  0  0  0  0  0999 V2000
    8.9703    0.3699    0.9061 C   0  0  0  0  0  0  0  0  0  0  0  0
    8.6914    1.0349   -0.4362 C   0  0  0  0  0  0  0  0  0  0  0  0
    8.5191   -0.0221   -1.4011 N   0  0  0  0  0  0  0  0  0  0  0  0
    7.8771    0.4108   -2.6165 C   0  0  0  0  0  0  0  0  0  0  0  0
    6.3748    0.4529   -2.5088 C   0  0  0  0  0  0  0  0  0  0  0  0
    5.8333   -0.7658   -1.9310 N   0  0  0  0  0  0  0  0  0  0  0  0
    5.4352   -0.4478   -0.5762 C   0  0  0  0  0  0  0  0  0  0  0  0
    4.0142    0.0108   -0.5047 C   0  0  0  0  0  0  0  0  0  0  0  0
    3.5485    1.0620   -1.2489 C   0  0  0  0  0  0  0  0  0  0  0  0
    2.4624    1.7821   -0.8290 C   0  0  0  0  0  0  0  0  0  0  0  0
    1.8540    1.5745    0.4030 C   0  0  0  0  0  0  0  0  0  0  0  0
    0.4170    1.8662    0.5071 C   0  0  0  0  0  0  0  0  0  0  0  0
   -0.0337    1.9343    1.6908 O   0  0  0  0  0  0  0  0  0  0  0  0
   -0.5109    1.5596   -0.5090 N   0  0  0  0  0  0  0  0  0  0  0  0
   -1.7554    0.8994   -0.2883 C   0  0  0  0  0  0  0  0  0  0  0  0
   -1.8465   -0.3294    0.3555 C   0  0  0  0  0  0  0  0  0  0  0  0
   -2.5786   -1.3756   -0.1942 C   0  0  0  0  0  0  0  0  0  0  0  0
   -3.5747   -1.0852   -1.1185 C   0  0  0  0  0  0  0  0  0  0  0  0
   -4.0622   -2.1156   -2.0873 C   0  0  0  0  0  0  0  0  0  0  0  0
   -3.7906    0.2543   -1.4187 C   0  0  0  0  0  0  0  0  0  0  0  0
   -5.0218    0.5894   -1.9907 O   0  0  0  0  0  0  0  0  0  0  0  0
   -6.1356    0.4350   -1.1594 C   0  0  0  0  0  0  0  0  0  0  0  0
   -7.0608   -0.5776   -1.3450 C   0  0  0  0  0  0  0  0  0  0  0  0
   -7.9022   -0.9705   -0.3146 C   0  0  0  0  0  0  0  0  0  0  0  0
   -7.8682   -0.3209    0.9078 C   0  0  0  0  0  0  0  0  0  0  0  0
   -7.0906    0.8225    1.0368 C   0  0  0  0  0  0  0  0  0  0  0  0
   -6.2973    1.2048   -0.0169 C   0  0  0  0  0  0  0  0  0  0  0  0
   -7.0041    1.1771    2.4866 C   0  0  0  0  0  0  0  0  0  0  0  0
   -8.0056    0.2770    3.1221 C   0  0  0  0  0  0  0  0  0  0  0  0
   -8.1332    0.1426    4.3754 O   0  0  0  0  0  0  0  0  0  0  0  0
   -8.4055   -0.7040    2.1581 N   0  0  0  0  0  0  0  0  0  0  0  0
   -2.8480    1.2204   -1.0863 C   0  0  0  0  0  0  0  0  0  0  0  0
    2.2688    0.4363    1.0841 C   0  0  0  0  0  0  0  0  0  0  0  0
    3.2757   -0.3876    0.5959 C   0  0  0  0  0  0  0  0  0  0  0  0
    3.7907   -1.5150    1.4341 C   0  0  0  0  0  0  0  0  0  0  0  0
    4.3242   -2.5257    0.6758 F   0  0  0  0  0  0  0  0  0  0  0  0
    4.7314   -0.9533    2.2893 F   0  0  0  0  0  0  0  0  0  0  0  0
    2.7234   -1.9511    2.1949 F   0  0  0  0  0  0  0  0  0  0  0  0
    6.9239   -1.7335   -1.8394 C   0  0  0  0  0  0  0  0  0  0  0  0
    7.8902   -1.1717   -0.8025 C   0  0  0  0  0  0  0  0  0  0  0  0
  1  2  1  0
  2  3  1  0
  3  4  1  0
  4  5  1  0
  5  6  1  0
  6  7  1  0
  7  8  1  0
  8  9  2  0
  9 10  1  0
 10 11  2  0
 11 12  1  0
 12 13  2  0
 12 14  1  0
 14 15  1  0
 15 16  2  0
 16 17  1  0
 17 18  2  0
 18 19  1  0
 18 20  1  0
 20 21  1  0
 21 22  1  0
 22 23  2  0
 23 24  1  0
 24 25  2  0
 25 26  1  0
 26 27  2  0
 26 28  1  0
 28 29  1  0
 29 30  2  0
 29 31  1  0
 20 32  2  0
 11 33  1  0
 33 34  2  0
 34 35  1  0
 35 36  1  0
 35 37  1  0
 35 38  1  0
  6 39  1  0
 39 40  1  0
 40  3  1  0
 34  8  1  0
 32 15  1  0
 27 22  1  0
 31 25  1  0
M  END
>  <zinc_id>  (1) 
ZINC000096174842

>  <smiles>  (1) 
CCN1CCN(Cc2ccc(C(=O)Nc3ccc(C)c(Oc4ccc5c(c4)CC(=O)N5)c3)cc2C(F)(F)F)CC1

$$$$
