REMARK SMILES CCOC(=O)c1cc(C#N)c(N2CCC(C(=O)NS(=O)(=O)Cc3ccccc3)CC2)nc1C
REMARK SMILES IDX 12 1 13 2 14 3 15 4 29 5 30 6 11 7 6 8 7 9 32 10 8 11 31 12
REMARK SMILES IDX 33 13 4 14 5 15 3 16 2 17 1 18 9 19 10 20 16 21 17 22 18 23
REMARK SMILES IDX 19 24 20 25 21 26 22 27 23 28 24 29 28 30 25 31 27 32 26 33
REMARK H PARENT
REMARK Flexibility Score: inf
ROOT
ATOM      1  N   UNL     1       1.496  -1.362  -0.168  1.00  0.00    -0.355 N 
ATOM      2  C   UNL     1       0.707  -1.244  -1.361  1.00  0.00     0.020 C 
ATOM      3  C   UNL     1      -0.598  -1.973  -1.313  1.00  0.00    -0.024 C 
ATOM      4  C   UNL     1      -1.173  -2.126   0.063  1.00  0.00     0.042 C 
ATOM      5  C   UNL     1      -0.530  -1.197   1.077  1.00  0.00    -0.024 C 
ATOM      6  C   UNL     1       0.930  -1.623   1.153  1.00  0.00     0.020 C 
ENDROOT
BRANCH   1   7
ATOM      7  C   UNL     1       2.735  -0.642  -0.155  1.00  0.00     0.146 A 
ATOM      8  C   UNL     1       5.051   0.532   0.455  1.00  0.00     0.082 A 
ATOM      9  C   UNL     1       5.088  -0.694  -0.190  1.00  0.00    -0.024 A 
ATOM     10  C   UNL     1       3.871   1.248   0.600  1.00  0.00     0.054 A 
ATOM     11  C   UNL     1       3.884  -1.273  -0.569  1.00  0.00     0.095 A 
ATOM     12  N   UNL     1       2.739   0.510   0.558  1.00  0.00    -0.234 NA
ATOM     13  C   UNL     1       3.851   2.737   0.490  1.00  0.00    -0.021 C 
BRANCH   8  14
ATOM     14  C   UNL     1       6.307   1.239   0.697  1.00  0.00     0.340 C 
ATOM     15  O   UNL     1       7.416   0.682   0.433  1.00  0.00    -0.246 OA
BRANCH  14  16
ATOM     16  O   UNL     1       6.341   2.545   1.128  1.00  0.00    -0.462 OA
BRANCH  16  17
ATOM     17  C   UNL     1       7.440   3.399   0.914  1.00  0.00     0.089 C 
ATOM     18  C   UNL     1       7.065   4.849   1.107  1.00  0.00    -0.031 C 
ENDBRANCH  16  17
ENDBRANCH  14  16
ENDBRANCH   8  14
BRANCH  11  19
ATOM     19  C   UNL     1       3.770  -2.072  -1.768  1.00  0.00     0.103 C 
ATOM     20  N   UNL     1       3.646  -2.706  -2.740  1.00  0.00    -0.192 NA
ENDBRANCH  11  19
ENDBRANCH   1   7
BRANCH   4  21
ATOM     21  C   UNL     1      -2.638  -1.924   0.115  1.00  0.00     0.236 C 
ATOM     22  O   UNL     1      -3.162  -1.754   1.250  1.00  0.00    -0.274 OA
ATOM     23  N   UNL     1      -3.517  -2.386  -0.915  1.00  0.00    -0.253 N 
BRANCH  23  24
ATOM     24  S   UNL     1      -5.058  -1.609  -1.058  1.00  0.00     0.239 S 
ATOM     25  O   UNL     1      -6.123  -2.594  -1.429  1.00  0.00    -0.206 OA
ATOM     26  O   UNL     1      -4.921  -0.515  -2.066  1.00  0.00    -0.206 OA
BRANCH  24  27
ATOM     27  C   UNL     1      -5.468  -0.832   0.498  1.00  0.00     0.094 C 
BRANCH  27  28
ATOM     28  C   UNL     1      -6.114   0.493   0.242  1.00  0.00    -0.031 A 
ATOM     29  C   UNL     1      -7.203   0.824   1.034  1.00  0.00    -0.058 A 
ATOM     30  C   UNL     1      -5.534   1.458  -0.552  1.00  0.00    -0.058 A 
ATOM     31  C   UNL     1      -7.646   2.121   1.068  1.00  0.00    -0.062 A 
ATOM     32  C   UNL     1      -5.820   2.772  -0.301  1.00  0.00    -0.062 A 
ATOM     33  C   UNL     1      -6.831   3.118   0.574  1.00  0.00    -0.062 A 
ENDBRANCH  27  28
ENDBRANCH  24  27
ENDBRANCH  23  24
ENDBRANCH   4  21
TORSDOF 9

