REMARK SMILES CC1(N2CCC(n3c([C@@H]4CCCNC4)nc4ccccc43)CC2)CCCCCCC1
REMARK SMILES IDX 1 1 2 2 3 3 4 4 23 5 5 6 22 7 6 8 7 9 21 10 8 11 20 12 16 13
REMARK SMILES IDX 15 14 19 15 17 16 18 17 9 18 10 19 14 20 11 21 13 22 12 23
REMARK SMILES IDX 24 24 25 25 26 26 27 27 30 29 29 30 28 31
REMARK H PARENT
REMARK Flexibility Score: 80.00
ROOT
ATOM      1  C   UNL     1       3.046  -0.010   0.192  1.00  0.00    -0.047 C 
ATOM      2  C   UNL     1       3.174  -0.087   0.059  1.00  0.00     0.018 C 
ENDROOT
BRANCH   2   3
ATOM      3  N   UNL     1       2.173  -0.127  -0.969  1.00  0.00    -0.298 NA
ATOM      4  C   UNL     1       1.341   1.048  -0.789  1.00  0.00     0.001 C 
ATOM      5  C   UNL     1       1.353  -1.296  -0.639  1.00  0.00     0.001 C 
ATOM      6  C   UNL     1      -0.054   0.859  -1.312  1.00  0.00    -0.019 C 
ATOM      7  C   UNL     1       0.310  -0.846   0.379  1.00  0.00    -0.019 C 
ATOM      8  C   UNL     1      -0.763  -0.141  -0.414  1.00  0.00     0.038 C 
BRANCH   8   9
ATOM      9  N   UNL     1      -1.768   0.475   0.408  1.00  0.00    -0.324 N 
ATOM     10  C   UNL     1      -1.937   1.819   0.470  1.00  0.00     0.068 A 
ATOM     11  C   UNL     1      -3.006  -0.052   0.581  1.00  0.00     0.114 A 
ATOM     12  C   UNL     1      -1.341   2.897  -0.172  1.00  0.00    -0.036 A 
ATOM     13  C   UNL     1      -3.163   2.040   1.083  1.00  0.00     0.089 A 
ATOM     14  N   UNL     1      -3.598   0.811   1.448  1.00  0.00    -0.233 NA
ATOM     15  C   UNL     1      -1.932   4.145  -0.233  1.00  0.00    -0.060 A 
ATOM     16  C   UNL     1      -3.734   3.302   1.044  1.00  0.00    -0.034 A 
ATOM     17  C   UNL     1      -3.202   4.331   0.277  1.00  0.00    -0.060 A 
BRANCH  11  18
ATOM     18  C   UNL     1      -3.177  -1.633   0.810  1.00  0.00     0.030 C 
ATOM     19  C   UNL     1      -2.630  -1.972  -0.695  1.00  0.00    -0.041 C 
ATOM     20  C   UNL     1      -4.736  -1.603   0.314  1.00  0.00     0.005 C 
ATOM     21  C   UNL     1      -3.538  -3.036  -1.248  1.00  0.00    -0.040 C 
ATOM     22  N   UNL     1      -5.154  -2.977   0.564  1.00  0.00    -0.316 NA
ATOM     23  C   UNL     1      -4.192  -3.830  -0.130  1.00  0.00    -0.005 C 
ENDBRANCH  11  18
ENDBRANCH   8   9
ENDBRANCH   2   3
BRANCH   2  24
ATOM     24  C   UNL     1       3.569  -1.405   0.617  1.00  0.00    -0.035 C 
BRANCH  24  25
ATOM     25  C   UNL     1       4.906  -1.442   1.271  1.00  0.00    -0.052 C 
BRANCH  25  26
ATOM     26  C   UNL     1       5.832  -2.211   0.336  1.00  0.00    -0.053 C 
BRANCH  26  27
ATOM     27  C   UNL     1       6.396  -1.213  -0.659  1.00  0.00    -0.053 CG0
ATOM     28  G   UNL     1       6.400   0.190  -0.080  1.00  0.00     0.000 G0
ENDBRANCH  26  27
ENDBRANCH  25  26
ENDBRANCH  24  25
ENDBRANCH   2  24
BRANCH   2  29
ATOM     29  C   UNL     1       4.122   1.018   0.082  1.00  0.00    -0.035 C 
BRANCH  29  30
ATOM     30  C   UNL     1       5.302   0.945  -0.820  1.00  0.00    -0.052 C 
BRANCH  30  31
ATOM     31  C   UNL     1       6.400   0.190  -0.080  1.00  0.00    -0.053 CG0
ATOM     32  G   UNL     1       6.396  -1.213  -0.659  1.00  0.00     0.000 G0
ENDBRANCH  30  31
ENDBRANCH  29  30
ENDBRANCH   2  29
TORSDOF 3

