
     RDKit          3D

 30 31  0  0  0  0  0  0  0  0999 V2000
    6.1449    2.2142   -0.8530 C   0  0  0  0  0  0  0  0  0  0  0  0
    5.9487    2.5181    0.1102 C   0  0  0  0  0  0  0  0  0  0  0  0
    5.3334    3.8897    0.2000 C   0  0  0  0  0  0  0  0  0  0  0  0
    5.0444    1.4898    0.7561 C   0  0  0  0  0  0  0  0  0  0  0  0
    4.2152    0.9118   -0.5543 C   0  0  2  0  0  0  0  0  0  0  0  0
    3.2126    0.1042    0.3663 N   0  0  0  0  0  0  0  0  0  0  0  0
    2.3254   -0.6642   -0.4078 C   0  0  0  0  0  0  0  0  0  0  0  0
    2.0099   -0.5500   -1.5737 O   0  0  0  0  0  0  0  0  0  0  0  0
    1.4253   -1.5910    0.5681 C   0  0  1  0  0  0  0  0  0  0  0  0
    0.0623   -1.1648   -0.1206 N   0  0  0  0  0  0  0  0  0  0  0  0
   -0.7818   -0.4398    0.7861 C   0  0  0  0  0  0  0  0  0  0  0  0
   -0.2514    0.5839    1.2602 O   0  0  0  0  0  0  0  0  0  0  0  0
   -2.2244   -0.6318    0.6556 C   0  0  0  0  0  0  0  0  0  0  0  0
   -2.7147   -1.9030    0.9330 C   0  0  0  0  0  0  0  0  0  0  0  0
   -3.8153   -2.4223    0.2623 C   0  0  0  0  0  0  0  0  0  0  0  0
   -4.4912   -1.5180   -0.5477 C   0  0  0  0  0  0  0  0  0  0  0  0
   -4.1803   -0.1716   -0.5831 C   0  0  0  0  0  0  0  0  0  0  0  0
   -5.2099    0.8734   -0.6417 C   0  0  0  0  0  0  0  0  0  0  0  0
   -5.2525    1.8426   -1.6128 C   0  0  0  0  0  0  0  0  0  0  0  0
   -5.7554    3.0889   -1.2850 C   0  0  0  0  0  0  0  0  0  0  0  0
   -6.4960    3.2415   -0.1333 C   0  0  0  0  0  0  0  0  0  0  0  0
   -6.5101    2.2724    0.8622 C   0  0  0  0  0  0  0  0  0  0  0  0
   -6.0156    1.0314    0.4797 C   0  0  0  0  0  0  0  0  0  0  0  0
   -2.9199    0.1558   -0.2031 N   0  0  0  0  0  0  0  0  0  0  0  0
    1.5712   -2.9877   -0.4757 C   0  0  1  0  0  0  0  0  0  0  0  0
    2.7968   -3.6152    0.4560 C   0  0  0  0  0  0  0  0  0  0  0  0
    0.5221   -3.7499    0.3352 O   0  0  0  0  0  0  0  0  0  0  0  0
    5.2416   -0.4586   -0.7758 B   0  0  0  0  0  0  0  0  0  0  0  0
    4.7926   -1.3776   -1.8103 O   0  0  0  0  0  0  0  0  0  0  0  0
    5.9720   -0.9720    0.3299 O   0  0  0  0  0  0  0  0  0  0  0  0
  1  2  1  0
  2  3  1  0
  2  4  1  0
  5  4  1  1
  5  6  1  0
  6  7  1  0
  7  8  2  0
  9  7  1  6
  9 10  1  0
 10 11  1  0
 11 12  2  0
 11 13  1  0
 13 14  2  0
 14 15  1  0
 15 16  2  0
 16 17  1  0
 17 18  1  0
 18 19  2  0
 19 20  1  0
 20 21  2  0
 21 22  1  0
 22 23  2  0
 17 24  2  0
  9 25  1  0
 25 26  1  1
 25 27  1  0
  5 28  1  0
 28 29  1  0
 28 30  1  0
 24 13  1  0
 23 18  1  0
M  END
>  <zinc_id>  (1) 
ZINC000169748228

>  <smiles>  (1) 
CC(C)C[C@H](NC(=O)[C@@H](NC(=O)c1cccc(-c2ccccc2)n1)[C@@H](C)O)B(O)O

$$$$
