
     RDKit          3D

 30 32  0  0  0  0  0  0  0  0999 V2000
    1.1988   -0.8393    1.4259 C   0  0  0  0  0  0  0  0  0  0  0  0
    1.6055   -0.0094    0.0341 C   0  0  2  0  0  0  0  0  0  0  0  0
    2.8953    0.7256    0.8024 C   0  0  0  0  0  0  0  0  0  0  0  0
    3.2428    1.6674   -0.2605 N   0  0  0  0  0  0  0  0  0  0  0  0
    4.6339    2.0314   -0.2482 C   0  0  0  0  0  0  0  0  0  0  0  0
    5.4383    0.7719   -0.2494 C   0  0  0  0  0  0  0  0  0  0  0  0
    6.8234    0.7836   -0.1380 C   0  0  0  0  0  0  0  0  0  0  0  0
    7.5478   -0.3966   -0.1594 C   0  0  0  0  0  0  0  0  0  0  0  0
    6.9024   -1.6169   -0.1882 C   0  0  0  0  0  0  0  0  0  0  0  0
    7.5771   -2.7651   -0.4711 F   0  0  0  0  0  0  0  0  0  0  0  0
    5.5198   -1.5686   -0.0877 C   0  0  0  0  0  0  0  0  0  0  0  0
    4.8933   -0.4500   -0.6249 C   0  0  0  0  0  0  0  0  0  0  0  0
    2.3761    2.8163   -0.2368 C   0  0  0  0  0  0  0  0  0  0  0  0
    0.9412    2.3761   -0.3660 C   0  0  0  0  0  0  0  0  0  0  0  0
    0.6410    1.2059    0.4243 N   0  0  0  0  0  0  0  0  0  0  0  0
   -0.7103    0.7671    0.4978 C   0  0  0  0  0  0  0  0  0  0  0  0
   -1.0764    0.3419    1.6358 O   0  0  0  0  0  0  0  0  0  0  0  0
   -1.2368    0.0044   -0.6771 C   0  0  0  0  0  0  0  0  0  0  0  0
   -2.6117    0.3546   -0.8055 O   0  0  0  0  0  0  0  0  0  0  0  0
   -3.6143   -0.4489   -0.2652 C   0  0  0  0  0  0  0  0  0  0  0  0
   -3.3241   -1.5567    0.5099 C   0  0  0  0  0  0  0  0  0  0  0  0
   -4.2116   -2.6007    0.6740 C   0  0  0  0  0  0  0  0  0  0  0  0
   -5.3441   -2.6631   -0.1023 C   0  0  0  0  0  0  0  0  0  0  0  0
   -6.0463   -4.2193   -0.5027 Cl  0  0  0  0  0  0  0  0  0  0  0  0
   -5.7289   -1.4920   -0.7342 C   0  0  0  0  0  0  0  0  0  0  0  0
   -4.8752   -0.4100   -0.8212 C   0  0  0  0  0  0  0  0  0  0  0  0
   -5.3479    0.8377   -1.3215 N   0  0  0  0  0  0  0  0  0  0  0  0
   -5.8315    1.7916   -0.3845 C   0  0  0  0  0  0  0  0  0  0  0  0
   -5.6561    3.1968   -0.5532 N   0  0  0  0  0  0  0  0  0  0  0  0
   -6.6214    1.3645    0.4958 O   0  0  0  0  0  0  0  0  0  0  0  0
  2  1  1  1
  2  3  1  0
  3  4  1  0
  4  5  1  0
  5  6  1  0
  6  7  2  0
  7  8  1  0
  8  9  2  0
  9 10  1  0
  9 11  1  0
 11 12  2  0
  4 13  1  0
 13 14  1  0
 14 15  1  0
 15 16  1  0
 16 17  2  0
 16 18  1  0
 18 19  1  0
 19 20  1  0
 20 21  2  0
 21 22  1  0
 22 23  2  0
 23 24  1  0
 23 25  1  0
 25 26  2  0
 26 27  1  0
 27 28  1  0
 28 29  1  0
 28 30  2  0
 15  2  1  0
 26 20  1  0
 12  6  1  0
M  END
>  <zinc_id>  (1) 
ZINC000022010574

>  <smiles>  (1) 
C[C@@H]1CN(Cc2ccc(F)cc2)CCN1C(=O)COc1ccc(Cl)cc1NC(N)=O

$$$$
