REMARK SMILES Cc1nc(Nc2[nH]nc3c2CN(C(=O)N[C@H](CN(C)C)c2ccccc2)C3(C)C)c2sccc2n1
REMARK SMILES IDX 13 1 14 2 15 3 12 4 6 5 7 6 10 7 8 8 9 9 11 10 27 11 28 12
REMARK SMILES IDX 29 13 5 14 4 15 1 16 2 17 35 18 3 19 34 20 33 21 30 22 32 23
REMARK SMILES IDX 31 24 16 25 17 26 18 27 19 28 20 29 21 30 22 31 26 32 23 33
REMARK SMILES IDX 25 34 24 35
REMARK H PARENT
REMARK Flexibility Score: inf
ROOT
ATOM      1  C   UNL     1      -1.788   0.032   0.254  1.00  0.00     0.319 C 
ATOM      2  O   UNL     1      -1.242  -0.135  -0.880  1.00  0.00    -0.249 OA
ATOM      3  N   UNL     1      -3.202   0.042   0.230  1.00  0.00    -0.330 N 
ENDROOT
BRANCH   1   4
ATOM      4  N   UNL     1      -1.000   0.418   1.387  1.00  0.00    -0.309 N 
ATOM      5  C   UNL     1       2.354  -0.526   1.028  1.00  0.00     0.132 A 
ATOM      6  N   UNL     1       2.707  -1.333   2.060  1.00  0.00    -0.262 N 
ATOM      7  C   UNL     1       1.240   0.144   1.512  1.00  0.00     0.039 A 
ATOM      8  N   UNL     1       1.692  -1.437   2.912  1.00  0.00    -0.176 NA
ATOM      9  C   UNL     1       0.671  -0.658   2.494  1.00  0.00     0.095 A 
ATOM     10  C   UNL     1       0.237   1.179   1.217  1.00  0.00     0.054 C 
ATOM     11  C   UNL     1      -0.782  -0.320   2.628  1.00  0.00     0.084 C 
ATOM     12  C   UNL     1      -0.927   0.563   3.841  1.00  0.00    -0.036 C 
ATOM     13  C   UNL     1      -1.612  -1.570   2.709  1.00  0.00    -0.036 C 
BRANCH   5  14
ATOM     14  N   UNL     1       2.821  -0.598  -0.324  1.00  0.00    -0.324 N 
BRANCH  14  15
ATOM     15  C   UNL     1       3.971   0.078  -0.783  1.00  0.00     0.153 A 
ATOM     16  C   UNL     1       5.418   3.370  -0.504  1.00  0.00    -0.004 C 
ATOM     17  C   UNL     1       5.296   1.937  -0.663  1.00  0.00     0.128 A 
ATOM     18  N   UNL     1       6.414   1.228  -0.783  1.00  0.00    -0.232 NA
ATOM     19  N   UNL     1       4.059   1.431  -0.771  1.00  0.00    -0.215 NA
ATOM     20  C   UNL     1       6.390  -0.125  -0.881  1.00  0.00     0.087 A 
ATOM     21  C   UNL     1       7.330  -0.963  -1.456  1.00  0.00    -0.025 A 
ATOM     22  C   UNL     1       5.119  -0.684  -0.970  1.00  0.00     0.096 A 
ATOM     23  C   UNL     1       7.207  -2.252  -0.951  1.00  0.00    -0.006 A 
ATOM     24  S   UNL     1       5.497  -2.351  -0.811  1.00  0.00    -0.138 S 
ENDBRANCH  14  15
ENDBRANCH   5  14
ENDBRANCH   1   4
BRANCH   3  25
ATOM     25  C   UNL     1      -3.836   1.050  -0.838  1.00  0.00     0.068 C 
BRANCH  25  26
ATOM     26  C   UNL     1      -4.973   1.619   0.245  1.00  0.00     0.022 C 
BRANCH  26  27
ATOM     27  N   UNL     1      -5.433   0.475   0.954  1.00  0.00    -0.307 NA
ATOM     28  C   UNL     1      -4.851   0.512   2.292  1.00  0.00    -0.014 C 
ATOM     29  C   UNL     1      -6.842   0.313   1.088  1.00  0.00    -0.014 C 
ENDBRANCH  26  27
ENDBRANCH  25  26
BRANCH  25  30
ATOM     30  C   UNL     1      -4.870  -0.094  -1.398  1.00  0.00    -0.024 A 
ATOM     31  C   UNL     1      -5.932   0.541  -2.042  1.00  0.00    -0.057 A 
ATOM     32  C   UNL     1      -4.120  -0.878  -2.269  1.00  0.00    -0.057 A 
ATOM     33  C   UNL     1      -6.597  -0.113  -3.068  1.00  0.00    -0.062 A 
ATOM     34  C   UNL     1      -4.634  -1.349  -3.468  1.00  0.00    -0.062 A 
ATOM     35  C   UNL     1      -5.781  -0.763  -3.987  1.00  0.00    -0.062 A 
ENDBRANCH  25  30
ENDBRANCH   3  25
TORSDOF 7

