REMARK SMILES CC1(C)CNc2cc(NC(=O)c3cccnc3NCc3ccncc3)ccc21
REMARK SMILES IDX 12 1 13 2 14 3 15 4 16 5 17 6 10 7 9 8 11 9 8 10 1 11 2 12
REMARK SMILES IDX 3 13 4 14 28 15 5 16 6 17 27 18 7 19 26 20 18 21 19 22 20 23
REMARK SMILES IDX 21 24 25 25 22 26 24 27 23 28
REMARK H PARENT
REMARK Flexibility Score: inf
ROOT
ATOM      1  C   UNL     1       0.929  -0.017   0.654  1.00  0.00     0.082 A 
ATOM      2  C   UNL     1       0.528   0.779   1.722  1.00  0.00    -0.044 A 
ATOM      3  C   UNL     1       1.323   1.033   2.805  1.00  0.00    -0.043 A 
ATOM      4  C   UNL     1       2.568   0.448   2.899  1.00  0.00     0.029 A 
ATOM      5  N   UNL     1       2.898  -0.454   1.949  1.00  0.00    -0.239 NA
ATOM      6  C   UNL     1       2.184  -0.595   0.805  1.00  0.00     0.139 A 
ENDROOT
BRANCH   1   7
ATOM      7  C   UNL     1      -0.056  -0.757  -0.146  1.00  0.00     0.259 C 
ATOM      8  N   UNL     1      -0.969  -0.093  -1.026  1.00  0.00    -0.322 N 
ATOM      9  O   UNL     1      -0.367  -1.956   0.128  1.00  0.00    -0.269 OA
BRANCH   8  10
ATOM     10  C   UNL     1      -2.371  -0.393  -1.040  1.00  0.00     0.043 A 
ATOM     11  C   UNL     1      -6.923  -0.755   1.345  1.00  0.00    -0.054 C 
ATOM     12  C   UNL     1      -6.123   0.413   0.840  1.00  0.00     0.009 C 
ATOM     13  C   UNL     1      -6.024   1.448   1.925  1.00  0.00    -0.054 C 
ATOM     14  C   UNL     1      -6.769   1.068  -0.363  1.00  0.00     0.024 C 
ATOM     15  C   UNL     1      -4.815  -0.015   0.312  1.00  0.00    -0.017 A 
ATOM     16  N   UNL     1      -5.618   1.609  -1.064  1.00  0.00    -0.384 N 
ATOM     17  C   UNL     1      -4.528   0.708  -0.839  1.00  0.00     0.040 A 
ATOM     18  C   UNL     1      -4.092  -1.191   0.468  1.00  0.00    -0.054 A 
ATOM     19  C   UNL     1      -3.259   0.616  -1.397  1.00  0.00    -0.015 A 
ATOM     20  C   UNL     1      -2.917  -1.394  -0.246  1.00  0.00    -0.038 A 
ENDBRANCH   8  10
ENDBRANCH   1   7
BRANCH   6  21
ATOM     21  N   UNL     1       2.796  -1.089  -0.392  1.00  0.00    -0.365 N 
BRANCH  21  22
ATOM     22  C   UNL     1       3.549  -0.110  -1.159  1.00  0.00     0.042 C 
BRANCH  22  23
ATOM     23  C   UNL     1       5.006  -0.232  -0.973  1.00  0.00    -0.026 A 
ATOM     24  C   UNL     1       5.618  -0.522   0.228  1.00  0.00    -0.039 A 
ATOM     25  C   UNL     1       5.838   0.281  -1.961  1.00  0.00    -0.039 A 
ATOM     26  C   UNL     1       6.910  -0.159   0.533  1.00  0.00     0.027 A 
ATOM     27  C   UNL     1       7.112   0.705  -1.603  1.00  0.00     0.027 A 
ATOM     28  N   UNL     1       7.573   0.623  -0.342  1.00  0.00    -0.265 NA
ENDBRANCH  22  23
ENDBRANCH  21  22
ENDBRANCH   6  21
TORSDOF 5

