
     RDKit          3D

 32 35  0  0  0  0  0  0  0  0999 V2000
    5.2673    4.7037   -0.3577 C   0  0  0  0  0  0  0  0  0  0  0  0
    6.4946    3.3944   -0.1131 S   0  0  0  0  0  0  0  0  0  0  0  0
    5.7680    1.9577    0.6832 C   0  0  0  0  0  0  0  0  0  0  0  0
    6.1145    1.7150    1.9674 N   0  0  0  0  0  0  0  0  0  0  0  0
    5.8884    0.5172    2.5416 C   0  0  0  0  0  0  0  0  0  0  0  0
    6.4827    0.2146    3.8091 N   0  0  0  0  0  0  0  0  0  0  0  0
    5.3753   -0.4878    1.7352 C   0  0  0  0  0  0  0  0  0  0  0  0
    5.4924   -0.3616    0.3603 C   0  0  0  0  0  0  0  0  0  0  0  0
    4.8325   -1.3028   -0.4367 O   0  0  0  0  0  0  0  0  0  0  0  0
    3.4458   -1.1547   -0.5125 C   0  0  0  0  0  0  0  0  0  0  0  0
    2.6615   -1.8338    0.4092 C   0  0  0  0  0  0  0  0  0  0  0  0
    1.2899   -1.7769    0.2615 C   0  0  0  0  0  0  0  0  0  0  0  0
    0.6812   -1.0509   -0.7488 C   0  0  0  0  0  0  0  0  0  0  0  0
   -0.5980   -1.4459   -1.3015 C   0  0  0  0  0  0  0  0  0  0  0  0
   -0.7104   -1.9479   -2.5561 N   0  0  0  0  0  0  0  0  0  0  0  0
   -1.9339   -2.4180   -2.6253 N   0  0  0  0  0  0  0  0  0  0  0  0
   -2.6987   -1.7593   -1.7189 C   0  0  0  0  0  0  0  0  0  0  0  0
   -4.0935   -1.9499   -1.6729 N   0  0  0  0  0  0  0  0  0  0  0  0
   -5.0053   -1.2404   -0.8712 C   0  0  0  0  0  0  0  0  0  0  0  0
   -6.3548   -1.4748   -1.1126 C   0  0  0  0  0  0  0  0  0  0  0  0
   -7.3124   -0.4814   -0.9446 C   0  0  0  0  0  0  0  0  0  0  0  0
   -6.9875    0.6364   -0.1988 C   0  0  0  0  0  0  0  0  0  0  0  0
   -5.7060    0.7646    0.2841 C   0  0  0  0  0  0  0  0  0  0  0  0
   -5.4895    1.6754    1.4373 C   0  0  0  0  0  0  0  0  0  0  0  0
   -4.1522    1.6761    1.7466 F   0  0  0  0  0  0  0  0  0  0  0  0
   -5.8218    2.9742    1.0758 F   0  0  0  0  0  0  0  0  0  0  0  0
   -6.2620    1.2830    2.5261 F   0  0  0  0  0  0  0  0  0  0  0  0
   -4.7181   -0.0301   -0.2555 C   0  0  0  0  0  0  0  0  0  0  0  0
   -1.8256   -1.4563   -0.7270 N   0  0  0  0  0  0  0  0  0  0  0  0
    1.5051   -0.1668   -1.4336 C   0  0  0  0  0  0  0  0  0  0  0  0
    2.8539   -0.0760   -1.1355 C   0  0  0  0  0  0  0  0  0  0  0  0
    5.5169    0.9029   -0.1151 N   0  0  0  0  0  0  0  0  0  0  0  0
  1  2  1  0
  2  3  1  0
  3  4  2  0
  4  5  1  0
  5  6  1  0
  5  7  2  0
  7  8  1  0
  8  9  1  0
  9 10  1  0
 10 11  2  0
 11 12  1  0
 12 13  2  0
 13 14  1  0
 14 15  2  0
 15 16  1  0
 16 17  1  0
 17 18  1  0
 18 19  1  0
 19 20  2  0
 20 21  1  0
 21 22  2  0
 22 23  1  0
 23 24  1  0
 24 25  1  0
 24 26  1  0
 24 27  1  0
 23 28  2  0
 17 29  2  0
 13 30  1  0
 30 31  2  0
  8 32  2  0
 32  3  1  0
 31 10  1  0
 29 14  1  0
 28 19  1  0
M  END
>  <zinc_id>  (1) 
ZINC000068199950

>  <smiles>  (1) 
CSc1nc(N)cc(Oc2ccc(-c3n[nH]c(Nc4cccc(C(F)(F)F)c4)n3)cc2)n1

$$$$
