REMARK SMILES CCCCCC[C@@H](CCC)C(=O)O
REMARK SMILES IDX 5 1 4 2 3 3 2 4 1 5 6 6 7 7 8 8 9 9 10 10 11 11 12 12 13 13
REMARK H PARENT
REMARK Flexibility Score: inf
ROOT
ATOM      1  C   UNL     1       0.962   0.467  -1.228  1.00  0.00    -0.052 C 
ENDROOT
BRANCH   1   2
ATOM      2  C   UNL     1       2.079  -0.157  -0.447  1.00  0.00    -0.053 C 
BRANCH   2   3
ATOM      3  C   UNL     1       3.369   0.502  -0.838  1.00  0.00    -0.054 C 
BRANCH   3   4
ATOM      4  C   UNL     1       4.539   0.034  -0.020  1.00  0.00    -0.056 C 
ATOM      5  C   UNL     1       4.453   0.449   1.428  1.00  0.00    -0.065 C 
ENDBRANCH   3   4
ENDBRANCH   2   3
ENDBRANCH   1   2
BRANCH   1   6
ATOM      6  C   UNL     1      -0.269  -0.383  -1.302  1.00  0.00    -0.040 C 
BRANCH   6   7
ATOM      7  C   UNL     1      -0.893  -0.182   0.221  1.00  0.00     0.057 C 
BRANCH   7   8
ATOM      8  C   UNL     1      -2.061   0.854  -0.340  1.00  0.00    -0.040 C 
BRANCH   8   9
ATOM      9  C   UNL     1      -2.461   1.579   0.935  1.00  0.00    -0.055 C 
ATOM     10  C   UNL     1      -3.804   2.235   0.645  1.00  0.00    -0.065 C 
ENDBRANCH   8   9
ENDBRANCH   7   8
BRANCH   7  11
ATOM     11  C   UNL     1      -1.871  -1.471   0.045  1.00  0.00     0.306 C 
ATOM     12  O   UNL     1      -1.186  -2.521  -0.107  1.00  0.00    -0.252 OA
ATOM     13  O   UNL     1      -2.857  -1.408   1.007  1.00  0.00    -0.481 OA
ENDBRANCH   7  11
ENDBRANCH   6   7
ENDBRANCH   1   6
TORSDOF 8

