
     RDKit          3D

 23 25  0  0  0  0  0  0  0  0999 V2000
   -2.9846   -1.0116    2.7703 C   0  0  0  0  0  0  0  0  0  0  0  0
   -2.1830   -1.2019    1.5229 C   0  0  0  0  0  0  0  0  0  0  0  0
   -0.8709   -1.4246    1.3840 N   0  0  0  0  0  0  0  0  0  0  0  0
   -0.5266   -0.8264    0.2170 C   0  0  0  0  0  0  0  0  0  0  0  0
    0.8287   -0.8875   -0.3450 C   0  0  0  0  0  0  0  0  0  0  0  0
    1.7130    0.0104    0.0920 C   0  0  0  0  0  0  0  0  0  0  0  0
    1.6676    0.5936    1.4392 C   0  0  0  0  0  0  0  0  0  0  0  0
    0.6243    1.1419    1.9068 O   0  0  0  0  0  0  0  0  0  0  0  0
    3.0237    0.8334    1.8352 N   0  0  0  0  0  0  0  0  0  0  0  0
    3.8871    0.4035    0.7762 C   0  0  0  0  0  0  0  0  0  0  0  0
    5.2574    0.4549    0.5554 C   0  0  0  0  0  0  0  0  0  0  0  0
    5.6920    0.8503   -0.7044 C   0  0  0  0  0  0  0  0  0  0  0  0
    4.9214    0.5134   -1.8028 C   0  0  0  0  0  0  0  0  0  0  0  0
    3.7073   -0.1223   -1.5747 C   0  0  0  0  0  0  0  0  0  0  0  0
    3.1124    0.1184   -0.3424 C   0  0  0  0  0  0  0  0  0  0  0  0
   -1.6397   -0.9500   -0.6046 C   0  0  0  0  0  0  0  0  0  0  0  0
   -1.6743   -1.1746   -2.0840 C   0  0  0  0  0  0  0  0  0  0  0  0
   -2.7084   -1.1082    0.2565 C   0  0  0  0  0  0  0  0  0  0  0  0
   -4.1528   -1.1362   -0.0785 C   0  0  0  0  0  0  0  0  0  0  0  0
   -4.8155    0.1804    0.2606 C   0  0  0  0  0  0  0  0  0  0  0  0
   -4.3946    1.2591   -0.6689 C   0  0  0  0  0  0  0  0  0  0  0  0
   -3.5138    2.0534   -0.2627 O   0  0  0  0  0  0  0  0  0  0  0  0
   -4.9709    1.4303   -1.9270 O   0  0  0  0  0  0  0  0  0  0  0  0
  1  2  1  0
  2  3  1  0
  3  4  1  0
  4  5  1  0
  5  6  2  0
  6  7  1  0
  7  8  2  0
  7  9  1  0
  9 10  1  0
 10 11  2  0
 11 12  1  0
 12 13  2  0
 13 14  1  0
 14 15  2  0
  4 16  2  0
 16 17  1  0
 16 18  1  0
 18 19  1  0
 19 20  1  0
 20 21  1  0
 21 22  2  0
 21 23  1  0
 18  2  2  0
 15  6  1  0
 15 10  1  0
M  END
>  <zinc_id>  (1) 
ZINC000003834032

>  <smiles>  (1) 
Cc1[nH]c(/C=C2\C(=O)Nc3ccccc32)c(C)c1CCC(=O)O

$$$$
