REMARK SMILES O=C(NCCO)c1cccc(-c2cc(Nc3ccc(OC(F)(F)F)cc3)ncn2)c1
REMARK SMILES IDX 12 1 13 2 14 3 27 4 28 5 29 6 11 7 7 8 8 9 30 10 9 11 10 12
REMARK SMILES IDX 2 13 1 14 3 15 4 16 5 17 6 18 15 19 16 20 17 21 26 22 18 23
REMARK SMILES IDX 25 24 19 25 20 26 21 27 22 28 23 29 24 30
REMARK H PARENT
REMARK Flexibility Score: inf
ROOT
ATOM      1  C   UNL     1       0.734  -0.671  -0.201  1.00  0.00     0.076 A 
ATOM      2  C   UNL     1      -0.224  -1.674  -0.227  1.00  0.00     0.007 A 
ATOM      3  C   UNL     1      -1.483  -1.337   0.195  1.00  0.00     0.134 A 
ATOM      4  N   UNL     1      -1.778  -0.019   0.289  1.00  0.00    -0.219 NA
ATOM      5  C   UNL     1      -0.901   0.956   0.038  1.00  0.00     0.118 A 
ATOM      6  N   UNL     1       0.377   0.616  -0.150  1.00  0.00    -0.236 NA
ENDROOT
BRANCH   1   7
ATOM      7  C   UNL     1       2.169  -0.957  -0.144  1.00  0.00     0.001 A 
ATOM      8  C   UNL     1       4.347  -0.636   0.873  1.00  0.00     0.040 A 
ATOM      9  C   UNL     1       4.691  -1.894   0.397  1.00  0.00    -0.049 A 
ATOM     10  C   UNL     1       3.042  -0.240   0.644  1.00  0.00    -0.040 A 
ATOM     11  C   UNL     1       3.790  -2.721  -0.240  1.00  0.00    -0.061 A 
ATOM     12  C   UNL     1       2.561  -2.211  -0.583  1.00  0.00    -0.053 A 
BRANCH   8  13
ATOM     13  C   UNL     1       5.448   0.332   0.953  1.00  0.00     0.251 C 
ATOM     14  O   UNL     1       5.309   1.303   1.757  1.00  0.00    -0.269 OA
ATOM     15  N   UNL     1       6.378   0.524  -0.108  1.00  0.00    -0.350 N 
BRANCH  15  16
ATOM     16  C   UNL     1       6.779   1.816  -0.601  1.00  0.00     0.041 C 
BRANCH  16  17
ATOM     17  C   UNL     1       8.277   1.984  -0.657  1.00  0.00     0.060 C 
ATOM     18  O   UNL     1       8.934   1.302   0.361  1.00  0.00    -0.395 OA
ENDBRANCH  16  17
ENDBRANCH  15  16
ENDBRANCH   8  13
ENDBRANCH   1   7
BRANCH   3  19
ATOM     19  N   UNL     1      -2.472  -2.296   0.569  1.00  0.00    -0.340 N 
BRANCH  19  20
ATOM     20  C   UNL     1      -3.841  -1.882   0.641  1.00  0.00     0.040 A 
ATOM     21  C   UNL     1      -4.250  -0.910   1.547  1.00  0.00    -0.035 A 
ATOM     22  C   UNL     1      -4.742  -2.143  -0.384  1.00  0.00    -0.035 A 
ATOM     23  C   UNL     1      -5.268  -0.029   1.207  1.00  0.00    -0.018 A 
ATOM     24  C   UNL     1      -5.618  -1.157  -0.821  1.00  0.00    -0.018 A 
ATOM     25  C   UNL     1      -5.791   0.007  -0.080  1.00  0.00     0.129 A 
BRANCH  25  26
ATOM     26  O   UNL     1      -6.117   1.204  -0.716  1.00  0.00    -0.406 OA
BRANCH  26  27
ATOM     27  C   UNL     1      -5.323   2.362  -0.656  1.00  0.00     0.573 C 
ATOM     28  F   UNL     1      -4.053   2.105  -0.150  1.00  0.00    -0.132 F 
ATOM     29  F   UNL     1      -5.860   3.352   0.138  1.00  0.00    -0.132 F 
ATOM     30  F   UNL     1      -5.114   2.913  -1.918  1.00  0.00    -0.132 F 
ENDBRANCH  26  27
ENDBRANCH  25  26
ENDBRANCH  19  20
ENDBRANCH   3  19
TORSDOF 8

