REMARK SMILES COc1cc2ncnc(Sc3nnc(C)s3)c2cc1OC
REMARK SMILES IDX 3 1 4 2 5 3 6 4 7 5 8 6 9 7 17 8 18 9 19 10 2 11 1 12 20 13
REMARK SMILES IDX 21 14 10 15 11 16 12 17 16 18 13 19 14 20 15 21
REMARK H PARENT
REMARK Flexibility Score: inf
ROOT
ATOM      1  C   UNL     1      -3.431   0.333   0.334  1.00  0.00     0.162 A 
ATOM      2  C   UNL     1      -3.096  -0.594   1.312  1.00  0.00     0.010 A 
ATOM      3  C   UNL     1      -1.947  -1.366   1.230  1.00  0.00     0.079 A 
ATOM      4  N   UNL     1      -1.409  -1.978   2.312  1.00  0.00    -0.236 NA
ATOM      5  C   UNL     1      -0.076  -1.961   2.558  1.00  0.00     0.117 A 
ATOM      6  N   UNL     1       0.779  -1.530   1.601  1.00  0.00    -0.229 NA
ATOM      7  C   UNL     1       0.286  -1.311   0.360  1.00  0.00     0.114 A 
ATOM      8  C   UNL     1      -1.084  -1.207   0.154  1.00  0.00     0.037 A 
ATOM      9  C   UNL     1      -1.613  -0.560  -0.953  1.00  0.00    -0.004 A 
ATOM     10  C   UNL     1      -2.760   0.218  -0.878  1.00  0.00     0.161 A 
ENDROOT
BRANCH   1  11
ATOM     11  O   UNL     1      -4.025   1.544   0.699  1.00  0.00    -0.493 OA
ATOM     12  C   UNL     1      -3.312   2.763   0.688  1.00  0.00     0.078 C 
ENDBRANCH   1  11
BRANCH  10  13
ATOM     13  O   UNL     1      -3.026   1.205  -1.831  1.00  0.00    -0.493 OA
ATOM     14  C   UNL     1      -2.128   1.464  -2.905  1.00  0.00     0.078 C 
ENDBRANCH  10  13
BRANCH   7  15
ATOM     15  S   UNL     1       1.318  -1.239  -1.085  1.00  0.00    -0.036 SA
BRANCH  15  16
ATOM     16  C   UNL     1       2.765  -0.222  -0.769  1.00  0.00     0.180 A 
ATOM     17  N   UNL     1       2.891   1.118  -0.943  1.00  0.00    -0.131 NA
ATOM     18  S   UNL     1       4.431  -0.644  -0.721  1.00  0.00    -0.090 S 
ATOM     19  N   UNL     1       3.913   1.605  -0.294  1.00  0.00    -0.143 NA
ATOM     20  C   UNL     1       5.065   0.949  -0.583  1.00  0.00     0.115 A 
ATOM     21  C   UNL     1       6.459   1.412  -0.286  1.00  0.00    -0.010 C 
ENDBRANCH  15  16
ENDBRANCH   7  15
TORSDOF 4

