REMARK SMILES CCOC(=O)Nc1ccc(NCc2ccc(F)cc2)nc1N
REMARK SMILES IDX 7 1 8 2 9 3 10 4 20 5 21 6 22 7 6 8 4 9 5 10 3 11 2 12 1 13
REMARK SMILES IDX 11 14 12 15 13 16 14 17 19 18 15 19 18 20 16 21 17 22
REMARK H PARENT
REMARK Flexibility Score: inf
ROOT
ATOM      1  C   UNL     1       2.197  -0.849  -0.461  1.00  0.00     0.086 A 
ATOM      2  C   UNL     1       1.601  -1.886  -1.169  1.00  0.00    -0.031 A 
ATOM      3  C   UNL     1       0.280  -2.234  -0.920  1.00  0.00    -0.017 A 
ATOM      4  C   UNL     1      -0.430  -1.679   0.137  1.00  0.00     0.128 A 
ATOM      5  N   UNL     1       0.266  -0.807   0.905  1.00  0.00    -0.212 NA
ATOM      6  C   UNL     1       1.446  -0.291   0.559  1.00  0.00     0.149 A 
ATOM      7  N   UNL     1       1.910   0.947   1.092  1.00  0.00    -0.382 N 
ENDROOT
BRANCH   1   8
ATOM      8  N   UNL     1       3.137  -0.034  -1.172  1.00  0.00    -0.288 N 
ATOM      9  C   UNL     1       4.221   0.591  -0.516  1.00  0.00     0.411 C 
ATOM     10  O   UNL     1       4.747  -0.024   0.439  1.00  0.00    -0.224 OA
BRANCH   9  11
ATOM     11  O   UNL     1       4.756   1.808  -0.896  1.00  0.00    -0.450 OA
BRANCH  11  12
ATOM     12  C   UNL     1       5.459   2.632   0.027  1.00  0.00     0.090 C 
ATOM     13  C   UNL     1       4.489   3.720   0.467  1.00  0.00    -0.030 C 
ENDBRANCH  11  12
ENDBRANCH   9  11
ENDBRANCH   1   8
BRANCH   4  14
ATOM     14  N   UNL     1      -1.367  -2.508   0.788  1.00  0.00    -0.366 N 
BRANCH  14  15
ATOM     15  C   UNL     1      -2.684  -2.119   1.201  1.00  0.00     0.041 C 
BRANCH  15  16
ATOM     16  C   UNL     1      -3.315  -1.131   0.271  1.00  0.00    -0.029 A 
ATOM     17  C   UNL     1      -2.738   0.132   0.246  1.00  0.00    -0.054 A 
ATOM     18  C   UNL     1      -4.693  -1.153   0.095  1.00  0.00    -0.054 A 
ATOM     19  C   UNL     1      -3.458   1.267  -0.096  1.00  0.00    -0.026 A 
ATOM     20  C   UNL     1      -5.455   0.009   0.092  1.00  0.00    -0.026 A 
ATOM     21  C   UNL     1      -4.822   1.246   0.096  1.00  0.00     0.123 A 
ATOM     22  F   UNL     1      -5.548   2.361   0.323  1.00  0.00    -0.207 F 
ENDBRANCH  15  16
ENDBRANCH  14  15
ENDBRANCH   4  14
TORSDOF 6

