REMARK SMILES Cn1ncc(Cl)c1-c1cc(C(=O)N[C@H](CN)Cc2cccc(F)c2)sc1Cl
REMARK SMILES IDX 11 1 12 2 13 3 10 4 8 5 9 6 26 7 25 8 27 9 7 10 1 11 2 12
REMARK SMILES IDX 3 13 4 14 5 15 6 16 14 17 15 18 16 19 17 20 18 21 19 22
REMARK SMILES IDX 24 23 20 24 22 25 21 26 23 27
REMARK H PARENT
REMARK Flexibility Score: inf
ROOT
ATOM      1  C   UNL     1       0.543  -0.749  -0.502  1.00  0.00     0.261 C 
ATOM      2  O   UNL     1       1.204  -1.179  -1.497  1.00  0.00    -0.268 OA
ATOM      3  N   UNL     1       1.325  -0.571   0.686  1.00  0.00    -0.347 N 
ENDROOT
BRANCH   1   4
ATOM      4  C   UNL     1      -0.923  -0.859  -0.483  1.00  0.00     0.094 A 
ATOM      5  C   UNL     1      -3.140  -0.312  -0.518  1.00  0.00     0.032 A 
ATOM      6  C   UNL     1      -1.864   0.152  -0.629  1.00  0.00    -0.027 A 
ATOM      7  C   UNL     1      -3.350  -1.453  -1.284  1.00  0.00     0.103 A 
ATOM      8  S   UNL     1      -1.778  -2.145  -1.236  1.00  0.00    -0.117 S 
ATOM      9  Cl  UNL     1      -4.881  -2.259  -1.619  1.00  0.00    -0.072 Cl
BRANCH   5  10
ATOM     10  C   UNL     1      -4.261   0.522  -0.060  1.00  0.00     0.089 A 
ATOM     11  C   UNL     1      -4.444  -0.240   2.066  1.00  0.00     0.030 C 
ATOM     12  N   UNL     1      -4.806   0.424   1.175  1.00  0.00    -0.266 N 
ATOM     13  N   UNL     1      -5.824   1.268   1.179  1.00  0.00    -0.180 NA
ATOM     14  C   UNL     1      -6.060   1.781  -0.028  1.00  0.00     0.068 A 
ATOM     15  C   UNL     1      -5.051   1.335  -0.863  1.00  0.00     0.087 A 
ATOM     16  Cl  UNL     1      -4.693   1.873  -2.501  1.00  0.00    -0.080 Cl
ENDBRANCH   5  10
ENDBRANCH   1   4
BRANCH   3  17
ATOM     17  C   UNL     1       2.405  -1.726   0.874  1.00  0.00     0.045 C 
BRANCH  17  18
ATOM     18  C   UNL     1       3.320  -0.793   1.900  1.00  0.00     0.013 C 
ATOM     19  N   UNL     1       2.382  -0.426   2.949  1.00  0.00    -0.328 NA
ENDBRANCH  17  18
BRANCH  17  20
ATOM     20  C   UNL     1       3.203  -1.270  -0.505  1.00  0.00    -0.006 C 
BRANCH  20  21
ATOM     21  C   UNL     1       3.980  -0.092  -0.262  1.00  0.00    -0.043 A 
ATOM     22  C   UNL     1       3.518   1.196  -0.037  1.00  0.00    -0.059 A 
ATOM     23  C   UNL     1       5.352  -0.245  -0.086  1.00  0.00    -0.023 A 
ATOM     24  C   UNL     1       4.364   2.236  -0.402  1.00  0.00    -0.059 A 
ATOM     25  C   UNL     1       6.219   0.814  -0.097  1.00  0.00     0.123 A 
ATOM     26  C   UNL     1       5.730   2.104  -0.221  1.00  0.00    -0.026 A 
ATOM     27  F   UNL     1       7.534   0.613   0.184  1.00  0.00    -0.207 F 
ENDBRANCH  20  21
ENDBRANCH  17  20
ENDBRANCH   3  17
TORSDOF 6

