
     RDKit          3D

 25 25  0  0  0  0  0  0  0  0999 V2000
   -5.4516    0.6161    1.6595 C   0  0  0  0  0  0  0  0  0  0  0  0
   -5.8123    0.5913    1.5321 C   0  0  0  0  0  0  0  0  0  0  0  0
   -6.6367    0.0768    0.3559 C   0  0  0  0  0  0  0  0  0  0  0  0
   -6.0292    0.5212   -0.9698 C   0  0  0  0  0  0  0  0  0  0  0  0
   -4.7711    1.2443   -0.6669 C   0  0  0  0  0  0  0  0  0  0  0  0
   -3.7054    0.9794   -1.8978 C   0  0  2  0  0  0  0  0  0  0  0  0
   -4.1648   -0.4569   -2.1029 O   0  0  0  0  0  0  0  0  0  0  0  0
   -2.5286    0.5783   -0.8525 C   0  0  0  0  0  0  0  0  0  0  0  0
   -2.0167   -0.5628   -0.8295 C   0  0  0  0  0  0  0  0  0  0  0  0
   -0.4837   -0.9319   -0.7640 C   0  0  1  0  0  0  0  0  0  0  0  0
   -0.4507   -1.2246   -2.4356 C   0  0  2  0  0  0  0  0  0  0  0  0
    0.8298   -2.0213   -2.2984 O   0  0  0  0  0  0  0  0  0  0  0  0
    0.3565    0.1264   -2.8563 C   0  0  0  0  0  0  0  0  0  0  0  0
    1.3013    0.2102   -1.7489 C   0  0  0  0  0  0  0  0  0  0  0  0
    2.2938   -0.3421   -1.4875 O   0  0  0  0  0  0  0  0  0  0  0  0
    0.0771    0.6465   -0.8353 C   0  0  2  0  0  0  0  0  0  0  0  0
    0.8843    0.4908    0.5725 C   0  0  0  0  0  0  0  0  0  0  0  0
    2.0892    1.3530    0.4570 C   0  0  0  0  0  0  0  0  0  0  0  0
    3.1820    1.0247    1.1544 C   0  0  0  0  0  0  0  0  0  0  0  0
    3.2756   -0.1717    2.0162 C   0  0  0  0  0  0  0  0  0  0  0  0
    4.1478   -1.2590    1.4372 C   0  0  0  0  0  0  0  0  0  0  0  0
    5.5790   -0.7581    1.3191 C   0  0  0  0  0  0  0  0  0  0  0  0
    5.9423   -0.2766    2.6872 C   0  0  0  0  0  0  0  0  0  0  0  0
    6.3906   -1.1029    3.5334 O   0  0  0  0  0  0  0  0  0  0  0  0
    5.7014    1.0518    3.0210 O   0  0  0  0  0  0  0  0  0  0  0  0
  1  2  1  0
  2  3  1  0
  3  4  1  0
  4  5  1  0
  6  5  1  1
  6  7  1  0
  6  8  1  0
  8  9  2  0
 10  9  1  6
 10 11  1  0
 11 12  1  1
 11 13  1  0
 13 14  1  0
 14 15  2  0
 14 16  1  0
 16 17  1  1
 17 18  1  0
 18 19  2  0
 19 20  1  0
 20 21  1  0
 21 22  1  0
 22 23  1  0
 23 24  2  0
 23 25  1  0
 16 10  1  0
M  END
>  <zinc_id>  (1) 
ZINC000003830713

>  <smiles>  (1) 
CCCCC[C@H](O)/C=C/[C@H]1[C@H](O)CC(=O)[C@@H]1C/C=C\CCCC(=O)O

$$$$
