REMARK SMILES CNC(=O)[C@H](Cc1c[nH]c2ccccc12)NC(=O)[C@@H](CC(=O)NO)CC(C)C
REMARK SMILES IDX 16 1 17 2 18 3 5 4 3 5 1 6 2 7 4 8 6 9 7 10 8 11 15 12 9 13
REMARK SMILES IDX 10 14 14 15 11 16 13 17 12 18 19 19 20 20 21 21 22 22 23 23
REMARK SMILES IDX 24 24 25 25 26 26 27 27 28 28
REMARK H PARENT
REMARK Flexibility Score: inf
ROOT
ATOM      1  N   UNL     1       0.881   0.092   0.148  1.00  0.00    -0.344 N 
ATOM      2  C   UNL     1       1.531  -0.466  -0.907  1.00  0.00     0.224 C 
ATOM      3  O   UNL     1       0.862  -0.524  -1.952  1.00  0.00    -0.275 OA
ENDROOT
BRANCH   1   4
ATOM      4  C   UNL     1      -0.524  -0.530   0.578  1.00  0.00     0.112 C 
BRANCH   4   5
ATOM      5  C   UNL     1      -0.504  -1.793  -0.471  1.00  0.00     0.242 C 
ATOM      6  C   UNL     1      -0.660  -4.114   0.175  1.00  0.00     0.006 C 
ATOM      7  N   UNL     1      -0.298  -2.954   0.356  1.00  0.00    -0.357 N 
ATOM      8  O   UNL     1      -1.498  -1.917  -1.201  1.00  0.00    -0.273 OA
ENDBRANCH   4   5
BRANCH   4   9
ATOM      9  C   UNL     1      -1.381   0.481  -0.440  1.00  0.00     0.004 C 
BRANCH   9  10
ATOM     10  C   UNL     1      -2.719   0.340   0.213  1.00  0.00    -0.020 A 
ATOM     11  C   UNL     1      -3.276  -0.726   0.908  1.00  0.00     0.005 A 
ATOM     12  C   UNL     1      -3.745   1.275   0.179  1.00  0.00     0.003 A 
ATOM     13  N   UNL     1      -4.562  -0.774   0.474  1.00  0.00    -0.361 N 
ATOM     14  C   UNL     1      -4.911   0.526   0.309  1.00  0.00     0.046 A 
ATOM     15  C   UNL     1      -3.803   2.631   0.000  1.00  0.00    -0.053 A 
ATOM     16  C   UNL     1      -6.096   1.219   0.530  1.00  0.00    -0.038 A 
ATOM     17  C   UNL     1      -4.982   3.285   0.346  1.00  0.00    -0.062 A 
ATOM     18  C   UNL     1      -6.133   2.589   0.698  1.00  0.00    -0.060 A 
ENDBRANCH   9  10
ENDBRANCH   4   9
ENDBRANCH   1   4
BRANCH   2  19
ATOM     19  C   UNL     1       3.126  -0.328  -1.075  1.00  0.00     0.047 C 
BRANCH  19  20
ATOM     20  C   UNL     1       3.084   1.310  -0.822  1.00  0.00     0.040 C 
BRANCH  20  21
ATOM     21  C   UNL     1       4.501   1.562  -0.407  1.00  0.00     0.244 C 
ATOM     22  O   UNL     1       5.444   1.033  -1.062  1.00  0.00    -0.273 OA
ATOM     23  N   UNL     1       4.752   2.709   0.372  1.00  0.00    -0.238 N 
ATOM     24  O   UNL     1       5.984   3.259   0.467  1.00  0.00    -0.289 OA
ENDBRANCH  20  21
ENDBRANCH  19  20
BRANCH  19  25
ATOM     25  C   UNL     1       3.431  -0.620   0.528  1.00  0.00    -0.039 C 
BRANCH  25  26
ATOM     26  C   UNL     1       3.452  -2.114   0.668  1.00  0.00    -0.046 C 
ATOM     27  C   UNL     1       3.315  -2.822  -0.658  1.00  0.00    -0.063 C 
ATOM     28  C   UNL     1       4.730  -2.628   1.313  1.00  0.00    -0.063 C 
ENDBRANCH  25  26
ENDBRANCH  19  25
ENDBRANCH   2  19
TORSDOF 9

