REMARK SMILES CCCCC/C=C\C/C=C\C/C=C\C/C=C\CCCC(=O)NCCO
REMARK SMILES IDX 12 1 13 2 11 3 10 4 9 5 8 6 7 7 6 8 5 9 4 10 3 11 2 12 1 13
REMARK SMILES IDX 14 14 15 15 16 16 17 17 18 18 19 19 20 20 21 21 22 22 23 23
REMARK SMILES IDX 24 24 25 25
REMARK H PARENT
REMARK Flexibility Score: inf
ROOT
ATOM      1  C   UNL     1       0.155  -1.104   0.232  1.00  0.00    -0.084 C 
ATOM      2  C   UNL     1       0.588   0.055  -0.281  1.00  0.00    -0.084 C 
ENDROOT
BRANCH   1   3
ATOM      3  C   UNL     1      -1.273  -1.084   0.681  1.00  0.00    -0.017 C 
BRANCH   3   4
ATOM      4  C   UNL     1      -1.652   0.295   1.134  1.00  0.00    -0.084 C 
ATOM      5  C   UNL     1      -2.890   0.681   0.895  1.00  0.00    -0.084 C 
BRANCH   5   6
ATOM      6  C   UNL     1      -3.792  -0.126   0.011  1.00  0.00    -0.017 C 
BRANCH   6   7
ATOM      7  C   UNL     1      -4.306  -1.262   0.845  1.00  0.00    -0.085 C 
ATOM      8  C   UNL     1      -5.201  -0.926   1.783  1.00  0.00    -0.088 C 
BRANCH   8   9
ATOM      9  C   UNL     1      -5.362   0.493   2.199  1.00  0.00    -0.035 C 
BRANCH   9  10
ATOM     10  C   UNL     1      -6.747   0.704   2.759  1.00  0.00    -0.050 C 
BRANCH  10  11
ATOM     11  C   UNL     1      -7.658  -0.385   2.207  1.00  0.00    -0.053 C 
BRANCH  11  12
ATOM     12  C   UNL     1      -7.935  -0.051   0.756  1.00  0.00    -0.056 C 
ATOM     13  C   UNL     1      -9.405   0.240   0.607  1.00  0.00    -0.065 C 
ENDBRANCH  11  12
ENDBRANCH  10  11
ENDBRANCH   9  10
ENDBRANCH   8   9
ENDBRANCH   6   7
ENDBRANCH   5   6
ENDBRANCH   3   4
ENDBRANCH   1   3
BRANCH   2  14
ATOM     14  C   UNL     1      -0.236   0.613  -1.403  1.00  0.00    -0.017 C 
BRANCH  14  15
ATOM     15  C   UNL     1       0.365   0.047  -2.655  1.00  0.00    -0.085 C 
ATOM     16  C   UNL     1       1.691  -0.036  -2.741  1.00  0.00    -0.088 C 
BRANCH  16  17
ATOM     17  C   UNL     1       2.504   0.485  -1.626  1.00  0.00    -0.035 C 
BRANCH  17  18
ATOM     18  C   UNL     1       3.973   0.606  -2.006  1.00  0.00    -0.041 C 
BRANCH  18  19
ATOM     19  C   UNL     1       4.581  -0.772  -1.831  1.00  0.00     0.027 C 
BRANCH  19  20
ATOM     20  C   UNL     1       5.452  -0.702  -0.624  1.00  0.00     0.220 C 
ATOM     21  O   UNL     1       4.889  -0.617   0.499  1.00  0.00    -0.275 OA
ATOM     22  N   UNL     1       6.713  -0.047  -0.802  1.00  0.00    -0.354 N 
BRANCH  22  23
ATOM     23  C   UNL     1       7.492   0.341   0.359  1.00  0.00     0.041 C 
BRANCH  23  24
ATOM     24  C   UNL     1       8.899  -0.178   0.166  1.00  0.00     0.060 C 
ATOM     25  O   UNL     1       9.154  -0.496  -1.164  1.00  0.00    -0.395 OA
ENDBRANCH  23  24
ENDBRANCH  22  23
ENDBRANCH  19  20
ENDBRANCH  18  19
ENDBRANCH  17  18
ENDBRANCH  16  17
ENDBRANCH  14  15
ENDBRANCH   2  14
TORSDOF 16

