
     RDKit          3D

 34 38  0  0  0  0  0  0  0  0999 V2000
    4.2090   -2.7080   -1.5329 C   0  0  0  0  0  0  0  0  0  0  0  0
    3.8337   -1.5542   -0.7498 C   0  0  0  0  0  0  0  0  0  0  0  0
    4.8566   -0.7394   -0.3005 C   0  0  0  0  0  0  0  0  0  0  0  0
    4.5535    0.4194    0.3991 C   0  0  0  0  0  0  0  0  0  0  0  0
    5.2883    1.6289    0.1802 N   0  0  0  0  0  0  0  0  0  0  0  0
    5.6548    2.4191    1.3459 C   0  0  0  0  0  0  0  0  0  0  0  0
    4.8332    3.6969    1.2202 C   0  0  0  0  0  0  0  0  0  0  0  0
    5.1995    4.4602    0.1316 O   0  0  0  0  0  0  0  0  0  0  0  0
    5.6835    3.7426   -0.9387 C   0  0  0  0  0  0  0  0  0  0  0  0
    5.0661    2.3768   -1.0497 C   0  0  0  0  0  0  0  0  0  0  0  0
    3.3013    0.4473    1.0004 C   0  0  0  0  0  0  0  0  0  0  0  0
    2.2956   -0.4429    0.6430 C   0  0  0  0  0  0  0  0  0  0  0  0
    1.0221   -0.6067    0.9953 N   0  0  0  0  0  0  0  0  0  0  0  0
    0.3808   -1.4584    0.1577 C   0  0  0  0  0  0  0  0  0  0  0  0
   -0.7268   -2.3731    0.4728 C   0  0  0  0  0  0  0  0  0  0  0  0
   -2.0312   -1.9054    0.5714 C   0  0  0  0  0  0  0  0  0  0  0  0
   -2.3277   -0.5326    0.6237 N   0  0  0  0  0  0  0  0  0  0  0  0
   -2.0652    0.4743   -0.3057 C   0  0  0  0  0  0  0  0  0  0  0  0
   -3.2581    0.4903   -1.4643 C   0  0  1  0  0  0  0  0  0  0  0  0
   -3.6160   -0.9901   -1.2781 O   0  0  0  0  0  0  0  0  0  0  0  0
   -4.4076    0.9790   -0.3992 C   0  0  0  0  0  0  0  0  0  0  0  0
   -5.6682    0.5245   -0.7886 C   0  0  0  0  0  0  0  0  0  0  0  0
   -6.8203    1.2105   -0.4231 C   0  0  0  0  0  0  0  0  0  0  0  0
   -6.7326    2.5906   -0.5143 C   0  0  0  0  0  0  0  0  0  0  0  0
   -5.4851    3.1720   -0.3988 C   0  0  0  0  0  0  0  0  0  0  0  0
   -5.3801    4.9116   -0.6560 Cl  0  0  0  0  0  0  0  0  0  0  0  0
   -4.3675    2.3660   -0.2675 C   0  0  0  0  0  0  0  0  0  0  0  0
   -2.9317   -2.7879    1.1591 C   0  0  0  0  0  0  0  0  0  0  0  0
   -2.7923   -4.1380    0.8605 C   0  0  0  0  0  0  0  0  0  0  0  0
   -1.5613   -4.5798    0.5226 N   0  0  0  0  0  0  0  0  0  0  0  0
   -0.5197   -3.7301    0.6942 C   0  0  0  0  0  0  0  0  0  0  0  0
    0.6258   -4.2140    0.6116 O   0  0  0  0  0  0  0  0  0  0  0  0
    1.3732   -1.8968   -0.6589 N   0  0  0  0  0  0  0  0  0  0  0  0
    2.5146   -1.2525   -0.4335 C   0  0  0  0  0  0  0  0  0  0  0  0
  1  2  1  0
  2  3  2  0
  3  4  1  0
  4  5  1  0
  5  6  1  0
  6  7  1  0
  7  8  1  0
  8  9  1  0
  9 10  1  0
  4 11  2  0
 11 12  1  0
 12 13  1  0
 13 14  1  0
 14 15  1  0
 15 16  2  0
 16 17  1  0
 17 18  1  0
 19 18  1  1
 19 20  1  0
 19 21  1  0
 21 22  2  0
 22 23  1  0
 23 24  2  0
 24 25  1  0
 25 26  1  0
 25 27  2  0
 16 28  1  0
 28 29  2  0
 29 30  1  0
 30 31  1  0
 31 32  2  0
 14 33  2  0
 33 34  1  0
 34  2  1  0
 10  5  1  0
 34 12  2  0
 31 15  1  0
 27 21  1  0
M  END
>  <zinc_id>  (1) 
ZINC000006718468

>  <smiles>  (1) 
Cc1cc(N2CCOCC2)cc2[nH]c(-c3c(NC[C@@H](O)c4cccc(Cl)c4)cc[nH]c3=O)nc12

$$$$
