
     RDKit          3D

 35 38  0  0  0  0  0  0  0  0999 V2000
   -4.5318   -0.0903    1.9503 C   0  0  0  0  0  0  0  0  0  0  0  0
   -4.7474    0.4536    0.6188 N   0  0  0  0  0  0  0  0  0  0  0  0
   -4.0950    1.6753    0.2932 C   0  0  0  0  0  0  0  0  0  0  0  0
   -4.3728    2.7883    1.0667 C   0  0  0  0  0  0  0  0  0  0  0  0
   -3.5840    3.9014    0.9550 C   0  0  0  0  0  0  0  0  0  0  0  0
   -2.4016    3.8189    0.2630 C   0  0  0  0  0  0  0  0  0  0  0  0
   -2.1377    2.7353   -0.5404 C   0  0  0  0  0  0  0  0  0  0  0  0
   -3.1177    1.7661   -0.6822 C   0  0  0  0  0  0  0  0  0  0  0  0
   -2.7722    0.5553   -1.4763 C   0  0  0  0  0  0  0  0  0  0  0  0
   -2.2504   -0.5115   -0.6585 N   0  0  0  0  0  0  0  0  0  0  0  0
   -0.9052   -0.9677   -0.7167 C   0  0  0  0  0  0  0  0  0  0  0  0
    0.1239   -0.2096   -1.1303 N   0  0  0  0  0  0  0  0  0  0  0  0
    1.4174   -0.5181   -0.8652 C   0  0  0  0  0  0  0  0  0  0  0  0
    2.3405    0.4988   -0.5200 N   0  0  0  0  0  0  0  0  0  0  0  0
    3.6245    0.1801   -0.0296 C   0  0  0  0  0  0  0  0  0  0  0  0
    4.0655   -1.1147    0.1907 C   0  0  0  0  0  0  0  0  0  0  0  0
    5.3988   -1.4057   -0.0251 C   0  0  0  0  0  0  0  0  0  0  0  0
    6.3199   -0.3866   -0.2115 C   0  0  0  0  0  0  0  0  0  0  0  0
    5.9307    0.9404   -0.0876 C   0  0  0  0  0  0  0  0  0  0  0  0
    4.5810    1.1738    0.1378 C   0  0  0  0  0  0  0  0  0  0  0  0
    7.1128    1.7961   -0.3812 C   0  0  0  0  0  0  0  0  0  0  0  0
    8.2383    0.8633   -0.1829 C   0  0  0  0  0  0  0  0  0  0  0  0
    9.4488    1.1862    0.0116 O   0  0  0  0  0  0  0  0  0  0  0  0
    7.7363   -0.4740   -0.2645 N   0  0  0  0  0  0  0  0  0  0  0  0
    1.6530   -1.8354   -0.6500 N   0  0  0  0  0  0  0  0  0  0  0  0
    0.6574   -2.6726   -0.3044 C   0  0  0  0  0  0  0  0  0  0  0  0
   -0.6491   -2.2178   -0.1736 C   0  0  0  0  0  0  0  0  0  0  0  0
   -1.5384   -2.7671    0.8952 C   0  0  0  0  0  0  0  0  0  0  0  0
   -1.7766   -1.8126    1.8780 F   0  0  0  0  0  0  0  0  0  0  0  0
   -0.9219   -3.8404    1.4939 F   0  0  0  0  0  0  0  0  0  0  0  0
   -2.7269   -3.1486    0.3141 F   0  0  0  0  0  0  0  0  0  0  0  0
   -6.2002   -0.0293   -0.1927 S   0  0  0  0  0  0  0  0  0  0  0  0
   -6.8854    1.3645   -1.0717 C   0  0  0  0  0  0  0  0  0  0  0  0
   -5.8208   -1.1355   -1.1418 O   0  0  0  0  0  0  0  0  0  0  0  0
   -7.2134   -0.5601    0.7652 O   0  0  0  0  0  0  0  0  0  0  0  0
  1  2  1  0
  2  3  1  0
  3  4  2  0
  4  5  1  0
  5  6  2  0
  6  7  1  0
  7  8  2  0
  8  9  1  0
  9 10  1  0
 10 11  1  0
 11 12  2  0
 12 13  1  0
 13 14  1  0
 14 15  1  0
 15 16  2  0
 16 17  1  0
 17 18  2  0
 18 19  1  0
 19 20  2  0
 19 21  1  0
 21 22  1  0
 22 23  2  0
 22 24  1  0
 13 25  2  0
 25 26  1  0
 26 27  2  0
 27 28  1  0
 28 29  1  0
 28 30  1  0
 28 31  1  0
  2 32  1  0
 32 33  1  0
 32 34  2  0
 32 35  2  0
  8  3  1  0
 27 11  1  0
 20 15  1  0
 24 18  1  0
M  END
>  <zinc_id>  (1) 
ZINC000029046741

>  <smiles>  (1) 
CN(c1ccccc1CNc1nc(Nc2ccc3c(c2)CC(=O)N3)ncc1C(F)(F)F)S(C)(=O)=O

$$$$
