
     RDKit          3D

 24 26  0  0  0  0  0  0  0  0999 V2000
   -4.0972   -2.0265   -0.1698 C   0  0  0  0  0  0  0  0  0  0  0  0
   -3.6641   -1.5564    0.3173 O   0  0  0  0  0  0  0  0  0  0  0  0
   -3.1210   -0.3028    0.6155 C   0  0  0  0  0  0  0  0  0  0  0  0
   -3.9030    0.6929    1.1878 C   0  0  0  0  0  0  0  0  0  0  0  0
   -3.4679    2.0119    1.2253 C   0  0  0  0  0  0  0  0  0  0  0  0
   -2.4660    2.3853    0.3381 C   0  0  0  0  0  0  0  0  0  0  0  0
   -2.2074    4.0558   -0.1274 Cl  0  0  0  0  0  0  0  0  0  0  0  0
   -1.7688    1.4093   -0.3492 C   0  0  0  0  0  0  0  0  0  0  0  0
   -1.8937    0.1075    0.1206 C   0  0  0  0  0  0  0  0  0  0  0  0
   -0.9368   -0.9277   -0.3177 C   0  0  2  0  0  0  0  0  0  0  0  0
   -1.3399   -1.5951   -1.4469 F   0  0  0  0  0  0  0  0  0  0  0  0
   -0.6746   -1.9438    0.7496 C   0  0  0  0  0  0  0  0  0  0  0  0
   -1.2887   -2.1009    1.8486 O   0  0  0  0  0  0  0  0  0  0  0  0
    0.6585   -2.3872    0.4652 N   0  0  0  0  0  0  0  0  0  0  0  0
    1.3565   -1.3688   -0.2635 C   0  0  0  0  0  0  0  0  0  0  0  0
    2.6985   -1.0415   -0.4265 C   0  0  0  0  0  0  0  0  0  0  0  0
    3.1593    0.2602   -0.2787 C   0  0  0  0  0  0  0  0  0  0  0  0
    4.5516    0.5737    0.1533 C   0  0  0  0  0  0  0  0  0  0  0  0
    5.2246    1.2003   -0.8622 F   0  0  0  0  0  0  0  0  0  0  0  0
    4.4908    1.3449    1.3084 F   0  0  0  0  0  0  0  0  0  0  0  0
    5.1405   -0.6361    0.5086 F   0  0  0  0  0  0  0  0  0  0  0  0
    2.2169    1.2667   -0.4425 C   0  0  0  0  0  0  0  0  0  0  0  0
    0.8976    0.9347   -0.7246 C   0  0  0  0  0  0  0  0  0  0  0  0
    0.4342   -0.3563   -0.5007 C   0  0  0  0  0  0  0  0  0  0  0  0
  1  2  1  0
  2  3  1  0
  3  4  2  0
  4  5  1  0
  5  6  2  0
  6  7  1  0
  6  8  1  0
  8  9  2  0
 10  9  1  1
 10 11  1  0
 10 12  1  0
 12 13  2  0
 12 14  1  0
 14 15  1  0
 15 16  2  0
 16 17  1  0
 17 18  1  0
 18 19  1  0
 18 20  1  0
 18 21  1  0
 17 22  2  0
 22 23  1  0
 23 24  2  0
  9  3  1  0
 24 10  1  0
 24 15  1  0
M  END
>  <zinc_id>  (1) 
ZINC000000839816

>  <smiles>  (1) 
COc1ccc(Cl)cc1[C@]1(F)C(=O)Nc2cc(C(F)(F)F)ccc21

$$$$
