
     RDKit          3D

 26 28  0  0  0  0  0  0  0  0999 V2000
    6.4598    0.3942    0.5081 C   0  0  0  0  0  0  0  0  0  0  0  0
    5.6850    0.7181   -0.7373 C   0  0  0  0  0  0  0  0  0  0  0  0
    6.2530    1.8655   -1.5207 C   0  0  0  0  0  0  0  0  0  0  0  0
    5.4477   -0.5168   -1.5974 C   0  0  0  0  0  0  0  0  0  0  0  0
    4.5249   -1.3893   -0.8061 C   0  0  0  0  0  0  0  0  0  0  0  0
    4.8922   -1.9085    0.2908 O   0  0  0  0  0  0  0  0  0  0  0  0
    3.1189   -1.4336   -1.0491 N   0  0  0  0  0  0  0  0  0  0  0  0
    2.1559   -1.2528   -0.0028 C   0  0  0  0  0  0  0  0  0  0  0  0
    2.3626   -1.2747    1.3369 N   0  0  0  0  0  0  0  0  0  0  0  0
    1.5767   -0.3633    1.9096 N   0  0  0  0  0  0  0  0  0  0  0  0
    0.7250    0.1593    1.0077 C   0  0  0  0  0  0  0  0  0  0  0  0
    0.9465   -0.5829   -0.1457 C   0  0  0  0  0  0  0  0  0  0  0  0
   -0.2263   -0.4488   -1.0415 C   0  0  0  0  0  0  0  0  0  0  0  0
   -1.2383    0.1227   -0.1555 N   0  0  0  0  0  0  0  0  0  0  0  0
   -2.6434    0.0583   -0.4286 C   0  0  0  0  0  0  0  0  0  0  0  0
   -2.9641    0.2461   -1.6410 O   0  0  0  0  0  0  0  0  0  0  0  0
   -3.5657   -0.8178    0.3491 C   0  0  0  0  0  0  0  0  0  0  0  0
   -4.7298   -1.3080   -0.4650 C   0  0  0  0  0  0  0  0  0  0  0  0
   -5.6922   -0.2192   -0.8511 C   0  0  0  0  0  0  0  0  0  0  0  0
   -5.4405    0.9779   -0.0783 N   0  0  0  0  0  0  0  0  0  0  0  0
   -6.4693    1.9684   -0.2938 C   0  0  0  0  0  0  0  0  0  0  0  0
   -5.3316    0.6804    1.3305 C   0  0  0  0  0  0  0  0  0  0  0  0
   -4.1078   -0.1515    1.5773 C   0  0  0  0  0  0  0  0  0  0  0  0
   -0.5015    0.9720    0.7347 C   0  0  0  0  0  0  0  0  0  0  0  0
   -1.1654    1.2303    2.0476 C   0  0  0  0  0  0  0  0  0  0  0  0
   -0.0723    2.2740    0.1231 C   0  0  0  0  0  0  0  0  0  0  0  0
  1  2  1  0
  2  3  1  0
  2  4  1  0
  4  5  1  0
  5  6  2  0
  5  7  1  0
  7  8  1  0
  8  9  1  0
  9 10  1  0
 10 11  2  0
 11 12  1  0
 12 13  1  0
 13 14  1  0
 14 15  1  0
 15 16  2  0
 15 17  1  0
 17 18  1  0
 18 19  1  0
 19 20  1  0
 20 21  1  0
 20 22  1  0
 22 23  1  0
 14 24  1  0
 24 25  1  0
 24 26  1  0
 12  8  2  0
 23 17  1  0
 24 11  1  0
M  END
>  <zinc_id>  (1) 
ZINC000052509437

>  <smiles>  (1) 
CC(C)CC(=O)Nc1[nH]nc2c1CN(C(=O)C1CCN(C)CC1)C2(C)C

$$$$
