
     RDKit          3D

 35 39  0  0  0  0  0  0  0  0999 V2000
    5.4177    3.3696   -0.5042 C   0  0  0  0  0  0  0  0  0  0  0  0
    5.2959    1.9370   -0.6633 C   0  0  0  0  0  0  0  0  0  0  0  0
    6.4137    1.2275   -0.7835 N   0  0  0  0  0  0  0  0  0  0  0  0
    6.3900   -0.1251   -0.8814 C   0  0  0  0  0  0  0  0  0  0  0  0
    7.3296   -0.9625   -1.4559 C   0  0  0  0  0  0  0  0  0  0  0  0
    7.2066   -2.2525   -0.9506 C   0  0  0  0  0  0  0  0  0  0  0  0
    5.4968   -2.3512   -0.8111 S   0  0  0  0  0  0  0  0  0  0  0  0
    5.1193   -0.6836   -0.9703 C   0  0  0  0  0  0  0  0  0  0  0  0
    3.9707    0.0784   -0.7831 C   0  0  0  0  0  0  0  0  0  0  0  0
    2.8213   -0.5982   -0.3236 N   0  0  0  0  0  0  0  0  0  0  0  0
    2.3539   -0.5265    1.0281 C   0  0  0  0  0  0  0  0  0  0  0  0
    2.7071   -1.3330    2.0596 N   0  0  0  0  0  0  0  0  0  0  0  0
    1.6923   -1.4374    2.9116 N   0  0  0  0  0  0  0  0  0  0  0  0
    0.6707   -0.6583    2.4940 C   0  0  0  0  0  0  0  0  0  0  0  0
    1.2404    0.1438    1.5119 C   0  0  0  0  0  0  0  0  0  0  0  0
    0.2375    1.1789    1.2170 C   0  0  0  0  0  0  0  0  0  0  0  0
   -0.9997    0.4180    1.3865 N   0  0  0  0  0  0  0  0  0  0  0  0
   -1.7876    0.0323    0.2535 C   0  0  0  0  0  0  0  0  0  0  0  0
   -1.2424   -0.1351   -0.8799 O   0  0  0  0  0  0  0  0  0  0  0  0
   -3.2024    0.0420    0.2302 N   0  0  0  0  0  0  0  0  0  0  0  0
   -3.8357    1.0500   -0.8381 C   0  0  2  0  0  0  0  0  0  0  0  0
   -4.9733    1.6185    0.2449 C   0  0  0  0  0  0  0  0  0  0  0  0
   -5.4333    0.4749    0.9539 N   0  0  0  0  0  0  0  0  0  0  0  0
   -4.8511    0.5118    2.2919 C   0  0  0  0  0  0  0  0  0  0  0  0
   -6.8422    0.3133    1.0877 C   0  0  0  0  0  0  0  0  0  0  0  0
   -4.8704   -0.0940   -1.3983 C   0  0  0  0  0  0  0  0  0  0  0  0
   -5.9320    0.5411   -2.0419 C   0  0  0  0  0  0  0  0  0  0  0  0
   -6.5969   -0.1125   -3.0684 C   0  0  0  0  0  0  0  0  0  0  0  0
   -5.7811   -0.7635   -3.9875 C   0  0  0  0  0  0  0  0  0  0  0  0
   -4.6339   -1.3490   -3.4681 C   0  0  0  0  0  0  0  0  0  0  0  0
   -4.1199   -0.8783   -2.2692 C   0  0  0  0  0  0  0  0  0  0  0  0
   -0.7816   -0.3197    2.6284 C   0  0  0  0  0  0  0  0  0  0  0  0
   -0.9270    0.5626    3.8413 C   0  0  0  0  0  0  0  0  0  0  0  0
   -1.6118   -1.5701    2.7087 C   0  0  0  0  0  0  0  0  0  0  0  0
    4.0588    1.4315   -0.7709 N   0  0  0  0  0  0  0  0  0  0  0  0
  1  2  1  0
  2  3  2  0
  3  4  1  0
  4  5  1  0
  5  6  2  0
  6  7  1  0
  7  8  1  0
  8  9  1  0
  9 10  1  0
 10 11  1  0
 11 12  1  0
 12 13  1  0
 13 14  2  0
 14 15  1  0
 15 16  1  0
 16 17  1  0
 17 18  1  0
 18 19  2  0
 18 20  1  0
 21 20  1  1
 21 22  1  0
 22 23  1  0
 23 24  1  0
 23 25  1  0
 21 26  1  0
 26 27  2  0
 27 28  1  0
 28 29  2  0
 29 30  1  0
 30 31  2  0
 17 32  1  0
 32 33  1  0
 32 34  1  0
  9 35  2  0
 35  2  1  0
  8  4  2  0
 15 11  2  0
 31 26  1  0
 32 14  1  0
M  END
>  <zinc_id>  (1) 
ZINC000043203531

>  <smiles>  (1) 
Cc1nc(Nc2[nH]nc3c2CN(C(=O)N[C@H](CN(C)C)c2ccccc2)C3(C)C)c2sccc2n1

$$$$
