
     RDKit          3D

  9  9  0  0  0  0  0  0  0  0999 V2000
    3.9404    0.2339   -0.4599 C   0  0  0  0  0  0  0  0  0  0  0  0
    2.5878    0.7110   -0.3868 N   0  0  0  0  0  0  0  0  0  0  0  0
    1.7484   -0.0973    0.4936 C   0  0  0  0  0  0  0  0  0  0  0  0
    0.6864   -0.6942   -0.3889 C   0  0  0  0  0  0  0  0  0  0  0  0
   -0.6968   -0.3773    0.0851 C   0  0  0  0  0  0  0  0  0  0  0  0
   -1.7956   -1.0231   -0.4717 C   0  0  0  0  0  0  0  0  0  0  0  0
   -2.8600   -0.3995    0.0802 N   0  0  0  0  0  0  0  0  0  0  0  0
   -2.4770    0.8391    0.4656 C   0  0  0  0  0  0  0  0  0  0  0  0
   -1.1335    0.8076    0.5754 N   0  0  0  0  0  0  0  0  0  0  0  0
  1  2  1  0
  2  3  1  0
  3  4  1  0
  4  5  1  0
  5  6  2  0
  6  7  1  0
  7  8  1  0
  8  9  2  0
  9  5  1  0
M  END
>  <zinc_id>  (1) 
ZINC000002559937

>  <smiles>  (1) 
CNCCc1c[nH]cn1

$$$$
