
     RDKit          3D

 22 24  0  0  0  0  0  0  0  0999 V2000
   -0.8464    2.5620    0.6988 O   0  0  0  0  0  0  0  0  0  0  0  0
   -1.2373    1.4323    0.3014 C   0  0  0  0  0  0  0  0  0  0  0  0
   -2.5020    1.2609   -0.4242 C   0  0  0  0  0  0  0  0  0  0  0  0
   -3.3696    2.3377   -0.5576 C   0  0  0  0  0  0  0  0  0  0  0  0
   -4.7389    2.1272   -0.5842 C   0  0  0  0  0  0  0  0  0  0  0  0
   -5.1980    0.8222   -0.4555 C   0  0  0  0  0  0  0  0  0  0  0  0
   -4.3563   -0.2155   -0.6804 N   0  0  0  0  0  0  0  0  0  0  0  0
   -3.0286   -0.0079   -0.6358 C   0  0  0  0  0  0  0  0  0  0  0  0
   -2.0853   -1.1273   -0.5145 C   0  0  0  0  0  0  0  0  0  0  0  0
   -2.4740   -2.3025   -0.7928 O   0  0  0  0  0  0  0  0  0  0  0  0
   -0.7846   -0.9307    0.1375 C   0  0  0  0  0  0  0  0  0  0  0  0
    0.2184   -1.9220    0.1042 N   0  0  0  0  0  0  0  0  0  0  0  0
    1.4391   -1.8354   -0.6506 C   0  0  0  0  0  0  0  0  0  0  0  0
    2.6481   -2.2492    0.1631 C   0  0  0  0  0  0  0  0  0  0  0  0
    3.7205   -1.2909    0.0946 N   0  0  0  0  0  0  0  0  0  0  0  0
    4.2069   -0.8723    1.3836 C   0  0  0  0  0  0  0  0  0  0  0  0
    4.6133    0.5893    1.2554 C   0  0  0  0  0  0  0  0  0  0  0  0
    5.4374    0.7748    0.1624 O   0  0  0  0  0  0  0  0  0  0  0  0
    4.7840    0.5061   -1.0514 C   0  0  0  0  0  0  0  0  0  0  0  0
    3.4524   -0.1886   -0.7931 C   0  0  0  0  0  0  0  0  0  0  0  0
   -0.4402    0.2551    0.6411 C   0  0  0  0  0  0  0  0  0  0  0  0
    0.5410    0.2745    2.1039 Cl  0  0  0  0  0  0  0  0  0  0  0  0
  1  2  2  0
  2  3  1  0
  3  4  2  0
  4  5  1  0
  5  6  2  0
  6  7  1  0
  7  8  2  0
  8  9  1  0
  9 10  2  0
  9 11  1  0
 11 12  1  0
 12 13  1  0
 13 14  1  0
 14 15  1  0
 15 16  1  0
 16 17  1  0
 17 18  1  0
 18 19  1  0
 19 20  1  0
 11 21  2  0
 21 22  1  0
 21  2  1  0
  8  3  1  0
 20 15  1  0
M  END
>  <zinc_id>  (1) 
ZINC000100002044

>  <smiles>  (1) 
O=C1C(Cl)=C(NCCN2CCOCC2)C(=O)c2ncccc21

$$$$
