REMARK SMILES COc1cc(C(=O)OCCCN2CCCN(CCCOC(=O)c3cc(OC)c(OC)c(OC)c3)CC2)cc(OC)c1OC
REMARK SMILES IDX 14 1 15 2 16 3 17 4 18 5 19 6 20 7 21 8 22 9 23 10 25 11
REMARK SMILES IDX 24 12 28 13 31 14 34 15 26 16 27 17 29 18 30 19 32 20 33 21
REMARK SMILES IDX 35 22 13 24 12 25 11 26 10 27 9 28 8 29 6 30 7 31 5 32 4 33
REMARK SMILES IDX 37 34 3 35 38 36 41 37 2 38 1 39 39 40 40 41 42 42 43 43
REMARK SMILES IDX 36 44
REMARK H PARENT
REMARK Flexibility Score: 80.00
ROOT
ATOM      1  C   UNL     1      -1.241   0.095  -0.145  1.00  0.00    -0.028 C 
ENDROOT
BRANCH   1   2
ATOM      2  C   UNL     1       0.080   0.787  -0.023  1.00  0.00    -0.001 C 
BRANCH   2   3
ATOM      3  N   UNL     1       0.929   0.260   1.009  1.00  0.00    -0.302 NA
BRANCH   3   4
ATOM      4  C   UNL     1       1.375  -1.065   0.669  1.00  0.00     0.001 C 
BRANCH   4   5
ATOM      5  C   UNL     1       2.055  -0.955  -0.691  1.00  0.00    -0.006 C 
BRANCH   5   6
ATOM      6  C   UNL     1       2.993   0.242  -0.584  1.00  0.00     0.093 C 
BRANCH   6   7
ATOM      7  O   UNL     1       4.287  -0.301  -0.338  1.00  0.00    -0.462 OA
BRANCH   7   8
ATOM      8  C   UNL     1       5.296   0.399   0.291  1.00  0.00     0.338 C 
ATOM      9  O   UNL     1       5.116   1.628   0.546  1.00  0.00    -0.246 OA
BRANCH   8  10
ATOM     10  C   UNL     1       6.679   0.014  -0.012  1.00  0.00     0.067 A 
ATOM     11  C   UNL     1       9.020   0.568  -0.031  1.00  0.00     0.165 A 
ATOM     12  C   UNL     1       7.766   0.654   0.561  1.00  0.00    -0.001 A 
ATOM     13  C   UNL     1       9.090   0.087  -1.333  1.00  0.00     0.203 A 
ATOM     14  C   UNL     1       8.122  -0.788  -1.792  1.00  0.00     0.165 A 
ATOM     15  C   UNL     1       6.986  -0.912  -1.001  1.00  0.00    -0.001 A 
BRANCH  11  16
ATOM     16  O   UNL     1      10.098   1.252   0.486  1.00  0.00    -0.493 OA
ATOM     17  C   UNL     1      11.366   0.619   0.599  1.00  0.00     0.078 C 
ENDBRANCH  11  16
BRANCH  13  18
ATOM     18  O   UNL     1      10.053   0.519  -2.235  1.00  0.00    -0.490 OA
ATOM     19  C   UNL     1       9.650   1.439  -3.236  1.00  0.00     0.078 C 
ENDBRANCH  13  18
BRANCH  14  20
ATOM     20  O   UNL     1       8.168  -1.347  -3.073  1.00  0.00    -0.493 OA
ATOM     21  C   UNL     1       7.138  -0.913  -3.960  1.00  0.00     0.078 C 
ENDBRANCH  14  20
ENDBRANCH   8  10
ENDBRANCH   7   8
ENDBRANCH   6   7
ENDBRANCH   5   6
ENDBRANCH   4   5
ENDBRANCH   3   4
BRANCH   3  22
ATOM     22  C   UNL     1       0.382   0.371   2.333  1.00  0.00     0.011 CG0
ATOM     23  G   UNL     1      -0.327  -0.873   2.786  1.00  0.00     0.000 G0
ENDBRANCH   3  22
ENDBRANCH   2   3
ENDBRANCH   1   2
BRANCH   1  24
ATOM     24  C   UNL     1      -1.345  -1.186   0.622  1.00  0.00    -0.001 C 
BRANCH  24  25
ATOM     25  N   UNL     1      -1.539  -1.019   2.032  1.00  0.00    -0.302 NA
BRANCH  25  26
ATOM     26  C   UNL     1      -2.579  -0.101   2.391  1.00  0.00     0.001 C 
BRANCH  26  27
ATOM     27  C   UNL     1      -2.165   1.342   2.358  1.00  0.00    -0.006 C 
BRANCH  27  28
ATOM     28  C   UNL     1      -3.433   2.177   2.317  1.00  0.00     0.093 C 
BRANCH  28  29
ATOM     29  O   UNL     1      -4.588   1.361   2.158  1.00  0.00    -0.462 OA
BRANCH  29  30
ATOM     30  C   UNL     1      -4.898   0.843   0.918  1.00  0.00     0.338 C 
ATOM     31  O   UNL     1      -4.243   1.286  -0.070  1.00  0.00    -0.246 OA
BRANCH  30  32
ATOM     32  C   UNL     1      -6.218   0.255   0.662  1.00  0.00     0.067 A 
ATOM     33  C   UNL     1      -7.312   0.805   1.303  1.00  0.00    -0.001 A 
ATOM     34  C   UNL     1      -6.419  -0.427  -0.530  1.00  0.00    -0.001 A 
ATOM     35  C   UNL     1      -8.547   0.857   0.668  1.00  0.00     0.165 A 
ATOM     36  C   UNL     1      -7.723  -0.654  -0.943  1.00  0.00     0.165 A 
ATOM     37  C   UNL     1      -8.726   0.207  -0.540  1.00  0.00     0.203 A 
BRANCH  35  38
ATOM     38  O   UNL     1      -9.620   1.349   1.381  1.00  0.00    -0.493 OA
ATOM     39  C   UNL     1     -10.040   0.589   2.510  1.00  0.00     0.078 C 
ENDBRANCH  35  38
BRANCH  36  40
ATOM     40  O   UNL     1      -7.968  -1.453  -2.042  1.00  0.00    -0.493 OA
ATOM     41  C   UNL     1      -8.323  -2.814  -1.962  1.00  0.00     0.078 C 
ENDBRANCH  36  40
BRANCH  37  42
ATOM     42  O   UNL     1      -9.780   0.590  -1.339  1.00  0.00    -0.490 OA
ATOM     43  C   UNL     1      -9.614   0.909  -2.719  1.00  0.00     0.078 C 
ENDBRANCH  37  42
ENDBRANCH  30  32
ENDBRANCH  29  30
ENDBRANCH  28  29
ENDBRANCH  27  28
ENDBRANCH  26  27
ENDBRANCH  25  26
BRANCH  25  44
ATOM     44  C   UNL     1      -0.327  -0.873   2.786  1.00  0.00     0.011 CG0
ATOM     45  G   UNL     1       0.382   0.371   2.333  1.00  0.00     0.000 G0
ENDBRANCH  25  44
ENDBRANCH  24  25
ENDBRANCH   1  24
TORSDOF 18

