REMARK SMILES CCCOc1ccc2[nH]/c(=N\C(=O)OC)[nH]c2c1
REMARK SMILES IDX 5 1 6 2 7 3 8 4 9 5 10 6 11 7 16 8 17 9 18 10 4 11 3 12 2 13
REMARK SMILES IDX 1 14 12 15 13 16 14 17 15 18
REMARK H PARENT
REMARK Flexibility Score: inf
ROOT
ATOM      1  C   UNL     1       2.337   0.149   0.755  1.00  0.00     0.121 A 
ATOM      2  C   UNL     1       1.590   0.943   1.611  1.00  0.00    -0.018 A 
ATOM      3  C   UNL     1       0.270   1.253   1.311  1.00  0.00    -0.033 A 
ATOM      4  C   UNL     1      -0.380   0.544   0.308  1.00  0.00     0.065 A 
ATOM      5  N   UNL     1      -1.665   0.437  -0.068  1.00  0.00    -0.324 N 
ATOM      6  C   UNL     1      -1.906  -0.785  -0.601  1.00  0.00     0.211 A 
ATOM      7  N   UNL     1      -3.089  -1.325  -0.562  1.00  0.00    -0.140 NA
ATOM      8  N   UNL     1      -0.703  -1.391  -0.686  1.00  0.00    -0.324 N 
ATOM      9  C   UNL     1       0.267  -0.525  -0.300  1.00  0.00     0.068 A 
ATOM     10  C   UNL     1       1.644  -0.625  -0.152  1.00  0.00     0.006 A 
ENDROOT
BRANCH   1  11
ATOM     11  O   UNL     1       3.695   0.440   0.618  1.00  0.00    -0.494 OA
BRANCH  11  12
ATOM     12  C   UNL     1       4.576  -0.416  -0.078  1.00  0.00     0.088 C 
BRANCH  12  13
ATOM     13  C   UNL     1       5.697   0.440  -0.656  1.00  0.00    -0.022 C 
ATOM     14  C   UNL     1       6.332  -0.278  -1.841  1.00  0.00    -0.062 C 
ENDBRANCH  12  13
ENDBRANCH  11  12
ENDBRANCH   1  11
BRANCH   7  15
ATOM     15  C   UNL     1      -4.221  -0.511  -0.250  1.00  0.00     0.436 C 
ATOM     16  O   UNL     1      -5.246  -0.967   0.321  1.00  0.00    -0.222 OA
BRANCH  15  17
ATOM     17  O   UNL     1      -4.141   0.843  -0.570  1.00  0.00    -0.451 OA
ATOM     18  C   UNL     1      -5.058   1.772   0.003  1.00  0.00     0.083 C 
ENDBRANCH  15  17
ENDBRANCH   7  15
TORSDOF 5

