
     RDKit          3D

 27 29  0  0  0  0  0  0  0  0999 V2000
   -3.3652   -0.3985    2.4973 C   0  0  0  0  0  0  0  0  0  0  0  0
   -2.6663   -0.6889    2.4743 C   0  0  0  0  0  0  0  0  0  0  0  0
   -2.5888   -2.1358    2.2444 C   0  0  0  0  0  0  0  0  0  0  0  0
   -1.8181    0.1359    1.3566 C   0  0  2  0  0  0  0  0  0  0  0  0
   -3.1581    0.8217    0.8110 C   0  0  0  0  0  0  0  0  0  0  0  0
   -3.7787    1.6397    1.5256 O   0  0  0  0  0  0  0  0  0  0  0  0
   -3.5319    0.1725   -0.4107 N   0  0  0  0  0  0  0  0  0  0  0  0
   -4.8811    0.5647   -1.3504 S   0  0  0  0  0  0  0  0  0  0  0  0
   -4.5967    2.0456   -2.2615 C   0  0  0  0  0  0  0  0  0  0  0  0
   -5.2381   -0.6026   -2.2244 O   0  0  0  0  0  0  0  0  0  0  0  0
   -6.0039    0.8472   -0.3832 O   0  0  0  0  0  0  0  0  0  0  0  0
   -2.0613    0.1648   -0.9436 C   0  0  2  0  0  0  0  0  0  0  0  0
   -2.1354   -1.0596   -2.0218 C   0  0  0  0  0  0  0  0  0  0  0  0
   -0.7046   -1.4961   -1.6789 C   0  0  0  0  0  0  0  0  0  0  0  0
   -0.3889   -1.0589   -0.3067 N   0  0  0  0  0  0  0  0  0  0  0  0
    0.4933    0.0339   -0.1043 C   0  0  0  0  0  0  0  0  0  0  0  0
    0.1522    1.2281   -0.3734 O   0  0  0  0  0  0  0  0  0  0  0  0
    1.7201   -0.0523    0.6979 C   0  0  0  0  0  0  0  0  0  0  0  0
    2.9098   -0.3175    0.2320 C   0  0  0  0  0  0  0  0  0  0  0  0
    4.0936    0.5718    0.3077 C   0  0  0  0  0  0  0  0  0  0  0  0
    5.2655   -0.0544    0.8351 N   0  0  0  0  0  0  0  0  0  0  0  0
    5.8493   -1.0578    0.0041 C   0  0  0  0  0  0  0  0  0  0  0  0
    6.8387   -0.5315   -0.9987 C   0  0  0  0  0  0  0  0  0  0  0  0
    7.9392    0.1690   -0.2503 C   0  0  0  0  0  0  0  0  0  0  0  0
    7.3257    1.2785    0.5452 C   0  0  0  0  0  0  0  0  0  0  0  0
    6.1839    0.8741    1.4129 C   0  0  0  0  0  0  0  0  0  0  0  0
   -1.8541   -1.0935    0.1950 C   0  0  1  0  0  0  0  0  0  0  0  0
  1  2  1  0
  2  3  1  0
  4  2  1  1
  4  5  1  0
  5  6  2  0
  5  7  1  0
  7  8  1  0
  8  9  1  0
  8 10  2  0
  8 11  2  0
 12  7  1  1
 12 13  1  0
 13 14  1  0
 14 15  1  0
 15 16  1  0
 16 17  2  0
 16 18  1  0
 18 19  2  0
 19 20  1  0
 20 21  1  0
 21 22  1  0
 22 23  1  0
 23 24  1  0
 24 25  1  0
 25 26  1  0
 27 15  1  6
 27  4  1  0
 27 12  1  0
 26 21  1  0
M  END
>  <zinc_id>  (1) 
ZINC000003959300

>  <smiles>  (1) 
CC(C)[C@@H]1C(=O)N(S(C)(=O)=O)[C@@H]2CCN(C(=O)/C=C/CN3CCCCC3)[C@@H]12

$$$$
