REMARK SMILES OC[C@H]1O[C@@H](n2cnc3c(NC4CCCC4)ncnc32)[C@H](O)[C@@H]1O
REMARK SMILES IDX 6 1 7 2 8 3 9 4 20 5 19 6 18 7 17 8 10 9 5 10 3 11 4 12
REMARK SMILES IDX 23 13 21 14 24 15 22 16 2 17 1 18 11 19 12 20 13 21 16 22
REMARK SMILES IDX 14 23 15 24
REMARK H PARENT
REMARK Flexibility Score: inf
ROOT
ATOM      1  N   UNL     1      -1.161  -0.947  -0.268  1.00  0.00    -0.285 N 
ATOM      2  C   UNL     1      -0.314  -1.261  -1.277  1.00  0.00     0.099 A 
ATOM      3  N   UNL     1       0.963  -1.286  -0.829  1.00  0.00    -0.231 NA
ATOM      4  C   UNL     1       1.000  -0.552   0.302  1.00  0.00     0.150 A 
ATOM      5  C   UNL     1      -0.324  -0.512   0.717  1.00  0.00     0.167 A 
ATOM      6  N   UNL     1      -0.514   0.072   1.928  1.00  0.00    -0.216 NA
ATOM      7  C   UNL     1       0.408   0.892   2.494  1.00  0.00     0.120 A 
ATOM      8  N   UNL     1       1.465   1.238   1.718  1.00  0.00    -0.217 NA
ATOM      9  C   UNL     1       1.954   0.280   0.892  1.00  0.00     0.157 A 
ENDROOT
BRANCH   1  10
ATOM     10  C   UNL     1      -2.280   0.164  -0.533  1.00  0.00     0.165 C 
ATOM     11  C   UNL     1      -4.167   0.582  -0.283  1.00  0.00     0.112 C 
ATOM     12  O   UNL     1      -3.434  -0.724  -0.047  1.00  0.00    -0.347 OA
ATOM     13  C   UNL     1      -4.196   0.409  -1.997  1.00  0.00     0.113 C 
ATOM     14  C   UNL     1      -2.723  -0.456  -2.080  1.00  0.00     0.128 C 
ATOM     15  O   UNL     1      -3.606   1.795  -2.106  1.00  0.00    -0.387 OA
ATOM     16  O   UNL     1      -1.924   0.566  -2.846  1.00  0.00    -0.386 OA
BRANCH  11  17
ATOM     17  C   UNL     1      -5.658  -0.109  -0.111  1.00  0.00     0.072 C 
ATOM     18  O   UNL     1      -5.738  -0.060   1.247  1.00  0.00    -0.394 OA
ENDBRANCH  11  17
ENDBRANCH   1  10
BRANCH   9  19
ATOM     19  N   UNL     1       3.279  -0.047   0.754  1.00  0.00    -0.365 N 
BRANCH  19  20
ATOM     20  C   UNL     1       4.352   0.515   0.027  1.00  0.00     0.028 C 
ATOM     21  C   UNL     1       5.058  -0.710  -0.555  1.00  0.00    -0.033 C 
ATOM     22  C   UNL     1       5.401   1.093   0.972  1.00  0.00    -0.033 C 
ATOM     23  C   UNL     1       5.737  -1.245   0.679  1.00  0.00    -0.051 C 
ATOM     24  C   UNL     1       6.422   0.010   1.202  1.00  0.00    -0.051 C 
ENDBRANCH  19  20
ENDBRANCH   9  19
TORSDOF 4

