REMARK SMILES OCc1ccc(-c2nn(Cc3ccccc3)c3ccccc23)o1
REMARK SMILES IDX 7 1 8 2 9 3 17 4 18 5 19 6 20 7 21 8 22 9 6 10 3 11 4 12
REMARK SMILES IDX 23 13 5 14 2 15 1 16 10 17 11 18 12 19 16 20 13 21 15 22
REMARK SMILES IDX 14 23
REMARK H PARENT
REMARK Flexibility Score: inf
ROOT
ATOM      1  C   UNL     1       0.786   0.028  -0.890  1.00  0.00     0.135 A 
ATOM      2  N   UNL     1      -0.342   0.288  -0.187  1.00  0.00    -0.168 NA
ATOM      3  N   UNL     1      -1.136  -0.783  -0.191  1.00  0.00    -0.260 N 
ATOM      4  C   UNL     1      -0.551  -1.701  -0.994  1.00  0.00     0.069 A 
ATOM      5  C   UNL     1      -1.054  -2.817  -1.652  1.00  0.00    -0.036 A 
ATOM      6  C   UNL     1      -0.120  -3.704  -2.172  1.00  0.00    -0.060 A 
ATOM      7  C   UNL     1       1.225  -3.523  -1.882  1.00  0.00    -0.061 A 
ATOM      8  C   UNL     1       1.684  -2.221  -1.719  1.00  0.00    -0.050 A 
ATOM      9  C   UNL     1       0.730  -1.286  -1.338  1.00  0.00     0.031 A 
ENDROOT
BRANCH   1  10
ATOM     10  C   UNL     1       2.036   0.760  -0.681  1.00  0.00     0.155 A 
ATOM     11  C   UNL     1       3.648   1.502   0.553  1.00  0.00     0.130 A 
ATOM     12  C   UNL     1       3.379   2.498  -0.362  1.00  0.00    -0.017 A 
ATOM     13  O   UNL     1       3.067   0.426   0.068  1.00  0.00    -0.457 OA
ATOM     14  C   UNL     1       2.266   2.074  -1.071  1.00  0.00    -0.014 A 
BRANCH  11  15
ATOM     15  C   UNL     1       4.491   1.611   1.785  1.00  0.00     0.101 C 
ATOM     16  O   UNL     1       4.499   0.359   2.412  1.00  0.00    -0.388 OA
ENDBRANCH  11  15
ENDBRANCH   1  10
BRANCH   3  17
ATOM     17  C   UNL     1      -2.177  -1.103   0.783  1.00  0.00     0.067 C 
BRANCH  17  18
ATOM     18  C   UNL     1      -2.947   0.119   1.082  1.00  0.00    -0.027 A 
ATOM     19  C   UNL     1      -2.537   1.120   1.920  1.00  0.00    -0.057 A 
ATOM     20  C   UNL     1      -4.068   0.377   0.302  1.00  0.00    -0.057 A 
ATOM     21  C   UNL     1      -3.359   2.218   2.135  1.00  0.00    -0.062 A 
ATOM     22  C   UNL     1      -4.945   1.384   0.608  1.00  0.00    -0.062 A 
ATOM     23  C   UNL     1      -4.575   2.373   1.491  1.00  0.00    -0.062 A 
ENDBRANCH  17  18
ENDBRANCH   3  17
TORSDOF 4

