
     RDKit          3D

 30 33  0  0  0  0  0  0  0  0999 V2000
   -7.9501   -0.4687    1.5197 O   0  0  0  0  0  0  0  0  0  0  0  0
   -7.3792    0.4494    0.8893 C   0  0  0  0  0  0  0  0  0  0  0  0
   -7.7399    1.7807    1.1228 O   0  0  0  0  0  0  0  0  0  0  0  0
   -6.0937    0.2085    0.2206 C   0  0  0  0  0  0  0  0  0  0  0  0
   -5.9756    0.2551   -1.1633 C   0  0  0  0  0  0  0  0  0  0  0  0
   -4.7953    0.7863   -1.6695 C   0  0  0  0  0  0  0  0  0  0  0  0
   -3.6385    0.7431   -0.9000 C   0  0  0  0  0  0  0  0  0  0  0  0
   -3.6808    0.3981    0.4455 C   0  0  0  0  0  0  0  0  0  0  0  0
   -4.9491    0.2951    0.9970 C   0  0  0  0  0  0  0  0  0  0  0  0
   -2.3478   -0.0337    0.8833 C   0  0  0  0  0  0  0  0  0  0  0  0
   -2.0117   -0.2047    2.0921 O   0  0  0  0  0  0  0  0  0  0  0  0
   -1.4931   -0.0283   -0.2538 N   0  0  0  0  0  0  0  0  0  0  0  0
   -0.3098   -0.8142   -0.3769 C   0  0  0  0  0  0  0  0  0  0  0  0
   -0.3966   -2.0777   -0.9249 C   0  0  0  0  0  0  0  0  0  0  0  0
    0.6390   -3.0001   -0.8470 C   0  0  0  0  0  0  0  0  0  0  0  0
    1.8565   -2.5723   -0.3644 C   0  0  0  0  0  0  0  0  0  0  0  0
    1.8570   -1.4167    0.4031 C   0  0  0  0  0  0  0  0  0  0  0  0
    3.1091   -0.9464    0.7912 O   0  0  0  0  0  0  0  0  0  0  0  0
    3.9553   -0.5489   -0.2491 C   0  0  0  0  0  0  0  0  0  0  0  0
    3.9241    0.7394   -0.7693 C   0  0  0  0  0  0  0  0  0  0  0  0
    5.1063    1.4275   -1.0174 C   0  0  0  0  0  0  0  0  0  0  0  0
    6.3460    0.8162   -0.8663 C   0  0  0  0  0  0  0  0  0  0  0  0
    7.4548    1.5231   -0.2963 N   0  0  0  0  0  0  0  0  0  0  0  0
    7.3825    2.0327    0.8506 O   0  0  0  0  0  0  0  0  0  0  0  0
    8.7271    1.1979   -0.7254 O   0  0  0  0  0  0  0  0  0  0  0  0
    6.2961   -0.5731   -0.8355 C   0  0  0  0  0  0  0  0  0  0  0  0
    5.1275   -1.2504   -0.5067 C   0  0  0  0  0  0  0  0  0  0  0  0
    0.9021   -0.4384    0.1509 C   0  0  0  0  0  0  0  0  0  0  0  0
   -2.2141    0.6858   -1.2524 C   0  0  0  0  0  0  0  0  0  0  0  0
   -1.7081    1.0346   -2.3536 O   0  0  0  0  0  0  0  0  0  0  0  0
  1  2  2  0
  2  3  1  0
  2  4  1  0
  4  5  2  0
  5  6  1  0
  6  7  2  0
  7  8  1  0
  8  9  2  0
  8 10  1  0
 10 11  2  0
 10 12  1  0
 12 13  1  0
 13 14  2  0
 14 15  1  0
 15 16  2  0
 16 17  1  0
 17 18  1  0
 18 19  1  0
 19 20  2  0
 20 21  1  0
 21 22  2  0
 22 23  1  0
 23 24  2  0
 23 25  1  0
 22 26  1  0
 26 27  2  0
 17 28  2  0
 12 29  1  0
 29 30  2  0
  9  4  1  0
 28 13  1  0
 29  7  1  0
 27 19  1  0
M  CHG  2  23   1  25  -1
M  END
>  <zinc_id>  (1) 
ZINC000001210352

>  <smiles>  (1) 
O=C(O)c1ccc2c(c1)C(=O)N(c1cccc(Oc3ccc([N+](=O)[O-])cc3)c1)C2=O

$$$$
