
     RDKit          3D

 31 35  0  0  0  0  0  0  0  0999 V2000
    3.2905   -0.5755    1.7898 O   0  0  0  0  0  0  0  0  0  0  0  0
    4.0291   -0.1424    0.8978 C   0  0  0  0  0  0  0  0  0  0  0  0
    3.5001   -0.0647   -0.4301 N   0  0  0  0  0  0  0  0  0  0  0  0
    2.6208   -1.1070   -0.8563 C   0  0  0  0  0  0  0  0  0  0  0  0
    3.0558   -2.3255   -1.3308 C   0  0  0  0  0  0  0  0  0  0  0  0
    1.9533   -3.0582   -1.5074 N   0  0  0  0  0  0  0  0  0  0  0  0
    0.9081   -2.3641   -1.1231 N   0  0  0  0  0  0  0  0  0  0  0  0
   -0.3479   -2.7951   -0.8718 C   0  0  0  0  0  0  0  0  0  0  0  0
   -1.2764   -1.8207   -0.6348 C   0  0  0  0  0  0  0  0  0  0  0  0
   -0.9538   -0.5538   -0.1631 C   0  0  0  0  0  0  0  0  0  0  0  0
   -2.0079    0.3387    0.2122 N   0  0  0  0  0  0  0  0  0  0  0  0
   -1.9214    1.6371    0.8202 C   0  0  0  0  0  0  0  0  0  0  0  0
   -1.5910    2.3301   -0.5041 C   0  0  0  0  0  0  0  0  0  0  0  0
   -2.8880    2.0954   -1.1456 C   0  0  0  0  0  0  0  0  0  0  0  0
   -3.1963    0.4896   -0.8419 C   0  0  2  0  0  0  0  0  0  0  0  0
   -4.3103    0.8074    0.3185 C   0  0  0  0  0  0  0  0  0  0  0  0
   -5.1616    1.8623    0.0165 C   0  0  0  0  0  0  0  0  0  0  0  0
   -6.5140    1.8616    0.3180 C   0  0  0  0  0  0  0  0  0  0  0  0
   -7.1636    3.0003    0.6438 F   0  0  0  0  0  0  0  0  0  0  0  0
   -7.1403    0.6397    0.2630 C   0  0  0  0  0  0  0  0  0  0  0  0
   -6.3850   -0.4862    0.4807 C   0  0  0  0  0  0  0  0  0  0  0  0
   -5.0052   -0.3846    0.5100 C   0  0  0  0  0  0  0  0  0  0  0  0
   -4.3288   -1.4222    1.0015 F   0  0  0  0  0  0  0  0  0  0  0  0
    0.3536   -0.3180   -0.0645 N   0  0  0  0  0  0  0  0  0  0  0  0
    1.2683   -1.2017   -0.5463 C   0  0  0  0  0  0  0  0  0  0  0  0
    5.3812    0.2504    1.1619 N   0  0  0  0  0  0  0  0  0  0  0  0
    6.5329   -0.6039    0.8652 C   0  0  0  0  0  0  0  0  0  0  0  0
    6.5274   -0.2079   -0.5854 C   0  0  0  0  0  0  0  0  0  0  0  0
    6.8127    1.4260   -0.3904 C   0  0  2  0  0  0  0  0  0  0  0  0
    8.0768    1.1473    0.4424 O   0  0  0  0  0  0  0  0  0  0  0  0
    5.8810    1.5455    0.9859 C   0  0  0  0  0  0  0  0  0  0  0  0
  1  2  2  0
  2  3  1  0
  3  4  1  0
  4  5  1  0
  5  6  2  0
  6  7  1  0
  7  8  1  0
  8  9  2  0
  9 10  1  0
 10 11  1  0
 11 12  1  0
 12 13  1  0
 13 14  1  0
 14 15  1  0
 15 16  1  1
 16 17  2  0
 17 18  1  0
 18 19  1  0
 18 20  2  0
 20 21  1  0
 21 22  2  0
 22 23  1  0
 10 24  2  0
 24 25  1  0
  2 26  1  0
 26 27  1  0
 27 28  1  0
 28 29  1  0
 29 30  1  1
 29 31  1  0
 25  4  2  0
 31 26  1  0
 25  7  1  0
 15 11  1  0
 22 16  1  0
M  END
>  <zinc_id>  (1) 
ZINC000118399834

>  <smiles>  (1) 
O=C(Nc1cnn2ccc(N3CCC[C@@H]3c3cc(F)ccc3F)nc12)N1CC[C@H](O)C1

$$$$
