
     RDKit          3D

 27 30  0  0  0  0  0  0  0  0999 V2000
   -2.8804    3.2557    0.2594 C   0  0  0  0  0  0  0  0  0  0  0  0
   -3.1994    2.1715   -0.7410 C   0  0  0  0  0  0  0  0  0  0  0  0
   -4.6070    2.3943   -1.2813 C   0  0  0  0  0  0  0  0  0  0  0  0
   -3.0245    0.8105   -0.1917 C   0  0  0  0  0  0  0  0  0  0  0  0
   -1.8368    0.1087   -0.3381 C   0  0  0  0  0  0  0  0  0  0  0  0
   -1.7632   -1.2553   -0.1766 C   0  0  0  0  0  0  0  0  0  0  0  0
   -0.5047   -1.8813    0.2374 C   0  0  0  0  0  0  0  0  0  0  0  0
   -0.3525   -3.1670    0.6325 N   0  0  0  0  0  0  0  0  0  0  0  0
    0.7669   -3.2739    1.3440 N   0  0  0  0  0  0  0  0  0  0  0  0
    1.2111   -2.0221    1.5473 C   0  0  0  0  0  0  0  0  0  0  0  0
    2.2966   -1.7303    2.1329 O   0  0  0  0  0  0  0  0  0  0  0  0
    0.5855   -1.2280    0.6458 N   0  0  0  0  0  0  0  0  0  0  0  0
    1.0875   -0.0469    0.0063 C   0  0  0  0  0  0  0  0  0  0  0  0
    1.5615   -0.0751   -1.3019 C   0  0  0  0  0  0  0  0  0  0  0  0
    2.7492    0.5624   -1.6444 C   0  0  0  0  0  0  0  0  0  0  0  0
    3.4767    1.2783   -0.6999 C   0  0  0  0  0  0  0  0  0  0  0  0
    2.7436    1.6850    0.4102 C   0  0  0  0  0  0  0  0  0  0  0  0
    3.6424    2.4761    1.1175 C   0  0  0  0  0  0  0  0  0  0  0  0
    4.9260    2.1139    0.7269 C   0  0  0  0  0  0  0  0  0  0  0  0
    4.7949    1.3542   -0.3873 N   0  0  0  0  0  0  0  0  0  0  0  0
    5.8855    0.6790   -1.0871 C   0  0  0  0  0  0  0  0  0  0  0  0
    1.5565    1.0382    0.7407 C   0  0  0  0  0  0  0  0  0  0  0  0
   -2.9559   -1.8970    0.1331 C   0  0  0  0  0  0  0  0  0  0  0  0
   -2.9367   -3.2891    0.0407 O   0  0  0  0  0  0  0  0  0  0  0  0
   -4.0980   -1.1959    0.4917 C   0  0  0  0  0  0  0  0  0  0  0  0
   -4.0896    0.1858    0.4190 C   0  0  0  0  0  0  0  0  0  0  0  0
   -5.0353    0.9485    1.1047 O   0  0  0  0  0  0  0  0  0  0  0  0
  1  2  1  0
  2  3  1  0
  2  4  1  0
  4  5  2  0
  5  6  1  0
  6  7  1  0
  7  8  2  0
  8  9  1  0
  9 10  1  0
 10 11  2  0
 10 12  1  0
 12 13  1  0
 13 14  2  0
 14 15  1  0
 15 16  2  0
 16 17  1  0
 17 18  1  0
 18 19  2  0
 19 20  1  0
 20 21  1  0
 17 22  2  0
  6 23  2  0
 23 24  1  0
 23 25  1  0
 25 26  2  0
 26 27  1  0
 26  4  1  0
 12  7  1  0
 22 13  1  0
 20 16  1  0
M  END
>  <zinc_id>  (1) 
ZINC000043130413

>  <smiles>  (1) 
CC(C)c1cc(-c2n[nH]c(=O)n2-c2ccc3c(ccn3C)c2)c(O)cc1O

$$$$
