REMARK SMILES CSc1nc(N)cc(Oc2ccc(-c3n[nH]c(Nc4cccc(C(F)(F)F)c4)n3)cc2)n1
REMARK SMILES IDX 10 1 11 2 12 3 13 4 30 5 31 6 9 7 8 8 3 9 4 10 32 11 5 12
REMARK SMILES IDX 6 13 7 14 2 15 1 16 14 17 15 18 29 19 16 20 17 21 18 22
REMARK SMILES IDX 19 23 20 24 28 25 21 26 23 27 22 28 24 29 25 30 26 31 27 32
REMARK H PARENT
REMARK Flexibility Score: inf
ROOT
ATOM      1  C   UNL     1       3.446  -1.155  -0.512  1.00  0.00     0.129 A 
ATOM      2  C   UNL     1       2.662  -1.834   0.409  1.00  0.00    -0.019 A 
ATOM      3  C   UNL     1       1.290  -1.777   0.262  1.00  0.00    -0.047 A 
ATOM      4  C   UNL     1       0.681  -1.051  -0.749  1.00  0.00     0.021 A 
ATOM      5  C   UNL     1       1.505  -0.167  -1.434  1.00  0.00    -0.047 A 
ATOM      6  C   UNL     1       2.854  -0.076  -1.135  1.00  0.00    -0.019 A 
ENDROOT
BRANCH   1   7
ATOM      7  O   UNL     1       4.832  -1.303  -0.437  1.00  0.00    -0.439 OA
BRANCH   7   8
ATOM      8  C   UNL     1       5.492  -0.362   0.360  1.00  0.00     0.225 A 
ATOM      9  C   UNL     1       5.768   1.958   0.683  1.00  0.00     0.192 A 
ATOM     10  N   UNL     1       6.114   1.715   1.967  1.00  0.00    -0.205 NA
ATOM     11  N   UNL     1       5.517   0.903  -0.115  1.00  0.00    -0.187 NA
ATOM     12  C   UNL     1       5.888   0.517   2.542  1.00  0.00     0.131 A 
ATOM     13  N   UNL     1       6.483   0.215   3.809  1.00  0.00    -0.383 N 
ATOM     14  C   UNL     1       5.375  -0.488   1.735  1.00  0.00     0.043 A 
BRANCH   9  15
ATOM     15  S   UNL     1       6.495   3.394  -0.113  1.00  0.00    -0.089 SA
ATOM     16  C   UNL     1       5.267   4.704  -0.358  1.00  0.00    -0.011 C 
ENDBRANCH   9  15
ENDBRANCH   7   8
ENDBRANCH   1   7
BRANCH   4  17
ATOM     17  C   UNL     1      -0.598  -1.446  -1.302  1.00  0.00     0.183 A 
ATOM     18  N   UNL     1      -0.710  -1.948  -2.556  1.00  0.00    -0.152 NA
ATOM     19  N   UNL     1      -1.826  -1.456  -0.727  1.00  0.00    -0.191 NA
ATOM     20  N   UNL     1      -1.934  -2.418  -2.625  1.00  0.00    -0.245 N 
ATOM     21  C   UNL     1      -2.699  -1.759  -1.719  1.00  0.00     0.223 A 
BRANCH  21  22
ATOM     22  N   UNL     1      -4.093  -1.950  -1.673  1.00  0.00    -0.325 N 
BRANCH  22  23
ATOM     23  C   UNL     1      -5.005  -1.240  -0.871  1.00  0.00     0.041 A 
ATOM     24  C   UNL     1      -6.355  -1.475  -1.113  1.00  0.00    -0.038 A 
ATOM     25  C   UNL     1      -4.718  -0.030  -0.256  1.00  0.00    -0.026 A 
ATOM     26  C   UNL     1      -7.312  -0.481  -0.945  1.00  0.00    -0.060 A 
ATOM     27  C   UNL     1      -5.706   0.765   0.284  1.00  0.00     0.058 A 
ATOM     28  C   UNL     1      -6.987   0.636  -0.199  1.00  0.00    -0.050 A 
BRANCH  27  29
ATOM     29  C   UNL     1      -5.489   1.675   1.437  1.00  0.00     0.416 C 
ATOM     30  F   UNL     1      -4.152   1.676   1.747  1.00  0.00    -0.166 F 
ATOM     31  F   UNL     1      -5.822   2.974   1.076  1.00  0.00    -0.166 F 
ATOM     32  F   UNL     1      -6.262   1.283   2.526  1.00  0.00    -0.166 F 
ENDBRANCH  27  29
ENDBRANCH  22  23
ENDBRANCH  21  22
ENDBRANCH   4  17
TORSDOF 7

