REMARK SMILES O=C1NC(=O)c2c1c1c3ccccc3[nH]c1c1[nH]c3ccccc3c21
REMARK SMILES IDX 1 1 2 2 3 3 4 4 5 5 6 6 7 7 8 8 9 9 10 10 11 11 12 12 13 13
REMARK SMILES IDX 14 14 15 15 16 16 17 17 18 18 19 19 20 20 21 21 22 22 23 23
REMARK SMILES IDX 24 24 25 25
REMARK H PARENT
REMARK Flexibility Score: inf
ROOT
ATOM      1  O   UNL     1       2.479   1.907   1.905  1.00  0.00    -0.269 OA
ATOM      2  C   UNL     1       1.439   2.082   1.201  1.00  0.00     0.259 C 
ATOM      3  N   UNL     1       0.413   3.000   1.541  1.00  0.00    -0.288 N 
ATOM      4  C   UNL     1      -0.815   2.557   0.971  1.00  0.00     0.259 C 
ATOM      5  O   UNL     1      -1.835   3.276   0.767  1.00  0.00    -0.269 OA
ATOM      6  C   UNL     1      -0.495   1.288   0.310  1.00  0.00     0.063 A 
ATOM      7  C   UNL     1       0.873   1.106   0.261  1.00  0.00     0.063 A 
ATOM      8  C   UNL     1       1.396   0.004  -0.406  1.00  0.00     0.023 A 
ATOM      9  C   UNL     1       2.642  -0.583  -0.324  1.00  0.00     0.008 A 
ATOM     10  C   UNL     1       3.881  -0.024  -0.065  1.00  0.00    -0.052 A 
ATOM     11  C   UNL     1       5.003  -0.840  -0.098  1.00  0.00    -0.061 A 
ATOM     12  C   UNL     1       4.859  -2.211   0.035  1.00  0.00    -0.060 A 
ATOM     13  C   UNL     1       3.588  -2.759  -0.088  1.00  0.00    -0.038 A 
ATOM     14  C   UNL     1       2.551  -1.948  -0.531  1.00  0.00     0.047 A 
ATOM     15  N   UNL     1       1.232  -2.192  -0.709  1.00  0.00    -0.353 N 
ATOM     16  C   UNL     1       0.555  -1.022  -0.806  1.00  0.00     0.072 A 
ATOM     17  C   UNL     1      -0.788  -0.729  -0.908  1.00  0.00     0.072 A 
ATOM     18  N   UNL     1      -1.819  -1.440  -1.407  1.00  0.00    -0.353 N 
ATOM     19  C   UNL     1      -2.986  -0.846  -1.063  1.00  0.00     0.047 A 
ATOM     20  C   UNL     1      -4.312  -1.210  -1.188  1.00  0.00    -0.038 A 
ATOM     21  C   UNL     1      -5.232  -0.841  -0.218  1.00  0.00    -0.060 A 
ATOM     22  C   UNL     1      -4.861   0.023   0.804  1.00  0.00    -0.061 A 
ATOM     23  C   UNL     1      -3.696   0.750   0.593  1.00  0.00    -0.052 A 
ATOM     24  C   UNL     1      -2.728   0.273  -0.282  1.00  0.00     0.008 A 
ATOM     25  C   UNL     1      -1.343   0.377  -0.296  1.00  0.00     0.023 A 
ENDROOT
TORSDOF 0

