
     RDKit          3D

 42 46  0  0  0  0  0  0  0  0999 V2000
   -5.4222   -0.7171    3.8902 C   0  0  0  0  0  0  0  0  0  0  0  0
   -5.9858   -1.2406    2.5958 C   0  0  0  0  0  0  0  0  0  0  0  0
   -6.7287   -0.1325    1.9027 C   0  0  0  0  0  0  0  0  0  0  0  0
   -6.9542   -0.4092    0.4601 C   0  0  0  0  0  0  0  0  0  0  0  0
   -8.0674   -1.1053    0.0107 C   0  0  0  0  0  0  0  0  0  0  0  0
   -8.5577   -0.9434   -1.2783 C   0  0  0  0  0  0  0  0  0  0  0  0
   -9.8358   -1.6170   -1.6250 C   0  0  0  0  0  0  0  0  0  0  0  0
   -7.8965   -0.1602   -2.1641 N   0  0  0  0  0  0  0  0  0  0  0  0
   -6.7736    0.4728   -1.7543 C   0  0  0  0  0  0  0  0  0  0  0  0
   -6.2756    1.3423   -2.5320 O   0  0  0  0  0  0  0  0  0  0  0  0
   -6.2377    0.2841   -0.4965 C   0  0  0  0  0  0  0  0  0  0  0  0
   -4.9356    0.8994   -0.1659 C   0  0  0  0  0  0  0  0  0  0  0  0
   -3.8643   -0.0861   -0.0906 N   0  0  0  0  0  0  0  0  0  0  0  0
   -2.6815   -0.0084   -0.8590 C   0  0  0  0  0  0  0  0  0  0  0  0
   -2.6660    0.7415   -1.8700 O   0  0  0  0  0  0  0  0  0  0  0  0
   -1.3829   -0.4112   -0.3169 C   0  0  0  0  0  0  0  0  0  0  0  0
   -0.2985   -0.5467   -1.1570 C   0  0  0  0  0  0  0  0  0  0  0  0
    0.9585   -0.7879   -0.6162 C   0  0  0  0  0  0  0  0  0  0  0  0
    2.1271   -1.0663   -1.4540 C   0  0  0  0  0  0  0  0  0  0  0  0
    2.9638   -2.1451   -1.1946 C   0  0  0  0  0  0  0  0  0  0  0  0
    4.3297   -1.9915   -1.3979 C   0  0  0  0  0  0  0  0  0  0  0  0
    4.8833   -0.7597   -1.7229 C   0  0  0  0  0  0  0  0  0  0  0  0
    6.1075   -0.3270   -1.1194 N   0  0  0  0  0  0  0  0  0  0  0  0
    6.4325    1.0961   -1.0859 C   0  0  0  0  0  0  0  0  0  0  0  0
    7.2072    1.4028    0.1750 C   0  0  0  0  0  0  0  0  0  0  0  0
    8.3455    0.5272    0.2111 N   0  0  0  0  0  0  0  0  0  0  0  0
    9.3386    0.8098   -0.7862 C   0  0  0  0  0  0  0  0  0  0  0  0
   10.7074    0.5542   -0.1802 C   0  0  0  0  0  0  0  0  0  0  0  0
    9.2193   -0.0421   -2.0189 C   0  0  0  0  0  0  0  0  0  0  0  0
    8.0165   -0.8630    0.3422 C   0  0  0  0  0  0  0  0  0  0  0  0
    6.9952   -1.3506   -0.6403 C   0  0  0  0  0  0  0  0  0  0  0  0
    4.0311    0.1099   -2.3184 N   0  0  0  0  0  0  0  0  0  0  0  0
    2.6889   -0.0564   -2.2256 C   0  0  0  0  0  0  0  0  0  0  0  0
    1.1896   -0.2034    0.6230 C   0  0  0  0  0  0  0  0  0  0  0  0
    0.1400   -0.0762    1.5222 C   0  0  0  0  0  0  0  0  0  0  0  0
   -1.1211   -0.4147    1.0478 C   0  0  0  0  0  0  0  0  0  0  0  0
   -1.9517   -0.2628    2.1399 C   0  0  0  0  0  0  0  0  0  0  0  0
   -1.2050    0.1473    3.1850 N   0  0  0  0  0  0  0  0  0  0  0  0
    0.0382    0.3967    2.7882 N   0  0  0  0  0  0  0  0  0  0  0  0
    0.9937    1.2679    3.4435 C   0  0  0  0  0  0  0  0  0  0  0  0
    0.2749    2.2886    4.2861 C   0  0  0  0  0  0  0  0  0  0  0  0
    1.8531    2.0033    2.4465 C   0  0  0  0  0  0  0  0  0  0  0  0
  1  2  1  0
  2  3  1  0
  3  4  1  0
  4  5  1  0
  5  6  2  0
  6  7  1  0
  6  8  1  0
  8  9  1  0
  9 10  2  0
  9 11  1  0
 11 12  1  0
 12 13  1  0
 13 14  1  0
 14 15  2  0
 14 16  1  0
 16 17  2  0
 17 18  1  0
 18 19  1  0
 19 20  2  0
 20 21  1  0
 21 22  2  0
 22 23  1  0
 23 24  1  0
 24 25  1  0
 25 26  1  0
 26 27  1  0
 27 28  1  0
 27 29  1  0
 26 30  1  0
 30 31  1  0
 22 32  1  0
 32 33  2  0
 18 34  2  0
 34 35  1  0
 35 36  2  0
 36 37  1  0
 37 38  2  0
 38 39  1  0
 39 40  1  0
 40 41  1  0
 40 42  1  0
 11  4  2  0
 36 16  1  0
 33 19  1  0
 39 35  1  0
 31 23  1  0
M  END
>  <zinc_id>  (1) 
ZINC000098043801

>  <smiles>  (1) 
CCCc1cc(C)[nH]c(=O)c1CNC(=O)c1cc(-c2ccc(N3CCN(C(C)C)CC3)nc2)cc2c1cnn2C(C)C

$$$$
