
     RDKit          3D

 33 36  0  0  0  0  0  0  0  0999 V2000
    8.0540    2.2634   -0.0157 C   0  0  0  0  0  0  0  0  0  0  0  0
    7.6826    0.9477    0.3180 C   0  0  0  0  0  0  0  0  0  0  0  0
    7.4231    0.8822    1.8114 C   0  0  0  0  0  0  0  0  0  0  0  0
    6.5371    0.5684   -0.4646 N   0  0  0  0  0  0  0  0  0  0  0  0
    5.5214   -0.3215   -0.0100 C   0  0  0  0  0  0  0  0  0  0  0  0
    5.8574   -1.1623    0.8565 O   0  0  0  0  0  0  0  0  0  0  0  0
    4.1604   -0.0521   -0.3511 N   0  0  0  0  0  0  0  0  0  0  0  0
    3.7736    0.4835   -1.6314 C   0  0  0  0  0  0  0  0  0  0  0  0
    2.3801    1.0545   -1.4601 C   0  0  0  0  0  0  0  0  0  0  0  0
    1.8801   -0.1355   -0.4022 C   0  0  2  0  0  0  0  0  0  0  0  0
    0.8977    0.8839    0.3427 N   0  0  0  0  0  0  0  0  0  0  0  0
   -0.3401    0.5904    0.1856 C   0  0  0  0  0  0  0  0  0  0  0  0
   -1.2833    1.6112   -0.1237 N   0  0  0  0  0  0  0  0  0  0  0  0
   -2.6811    1.5357   -0.4189 C   0  0  0  0  0  0  0  0  0  0  0  0
   -3.2383    2.7523   -0.7863 C   0  0  0  0  0  0  0  0  0  0  0  0
   -4.5756    2.7589   -1.1668 C   0  0  0  0  0  0  0  0  0  0  0  0
   -5.3665    3.8596   -1.0004 F   0  0  0  0  0  0  0  0  0  0  0  0
   -5.0891    1.5536   -1.6315 C   0  0  0  0  0  0  0  0  0  0  0  0
   -4.6287    0.3366   -1.1417 C   0  0  0  0  0  0  0  0  0  0  0  0
   -3.4451    0.3747   -0.4500 C   0  0  0  0  0  0  0  0  0  0  0  0
   -3.1193   -0.8438    0.2295 N   0  0  0  0  0  0  0  0  0  0  0  0
   -4.2822   -1.6551    0.5213 C   0  0  0  0  0  0  0  0  0  0  0  0
   -5.0875   -0.9741    1.6184 C   0  0  0  0  0  0  0  0  0  0  0  0
   -6.3808   -0.7014    1.2192 F   0  0  0  0  0  0  0  0  0  0  0  0
   -4.5207    0.2417    1.9842 F   0  0  0  0  0  0  0  0  0  0  0  0
   -1.8551   -1.3740    0.6469 C   0  0  0  0  0  0  0  0  0  0  0  0
   -1.9245   -2.7490    0.8410 C   0  0  0  0  0  0  0  0  0  0  0  0
   -0.7912   -3.5177    0.6028 C   0  0  0  0  0  0  0  0  0  0  0  0
    0.3140   -3.0198   -0.0696 C   0  0  0  0  0  0  0  0  0  0  0  0
    1.1300   -3.9431   -1.3290 Cl  0  0  0  0  0  0  0  0  0  0  0  0
    0.4744   -1.6403    0.0041 C   0  0  0  0  0  0  0  0  0  0  0  0
   -0.6053   -0.8391    0.3567 C   0  0  0  0  0  0  0  0  0  0  0  0
    3.1285    0.2305    0.6432 C   0  0  0  0  0  0  0  0  0  0  0  0
  1  2  1  0
  2  3  1  0
  2  4  1  0
  4  5  1  0
  5  6  2  0
  5  7  1  0
  7  8  1  0
  8  9  1  0
  9 10  1  0
 10 11  1  1
 11 12  2  0
 12 13  1  0
 13 14  1  0
 14 15  2  0
 15 16  1  0
 16 17  1  0
 16 18  2  0
 18 19  1  0
 19 20  2  0
 20 21  1  0
 21 22  1  0
 22 23  1  0
 23 24  1  0
 23 25  1  0
 21 26  1  0
 26 27  2  0
 27 28  1  0
 28 29  2  0
 29 30  1  0
 29 31  1  0
 31 32  2  0
 10 33  1  0
 33  7  1  0
 32 12  1  0
 20 14  1  0
 32 26  1  0
M  END
>  <zinc_id>  (1) 
ZINC000473088484

>  <smiles>  (1) 
CC(C)NC(=O)N1CC[C@H](/N=C2/Nc3cc(F)ccc3N(CC(F)F)c3ccc(Cl)cc32)C1

$$$$
