REMARK SMILES O=c1ccc2ccccc2o1
REMARK SMILES IDX 1 1 2 2 3 3 4 4 5 5 6 6 7 7 8 8 9 9 10 10 11 11
REMARK H PARENT
REMARK Flexibility Score: inf
ROOT
ATOM      1  O   UNL     1       3.260  -0.582  -0.218  1.00  0.00    -0.246 OA
ATOM      2  C   UNL     1       2.077  -0.225   0.070  1.00  0.00     0.336 A 
ATOM      3  C   UNL     1       1.801   1.054   0.540  1.00  0.00     0.024 A 
ATOM      4  C   UNL     1       0.595   1.626   0.153  1.00  0.00    -0.044 A 
ATOM      5  C   UNL     1      -0.400   0.751  -0.255  1.00  0.00     0.018 A 
ATOM      6  C   UNL     1      -1.727   1.155  -0.322  1.00  0.00    -0.051 A 
ATOM      7  C   UNL     1      -2.770   0.292  -0.065  1.00  0.00    -0.061 A 
ATOM      8  C   UNL     1      -2.483  -0.973   0.436  1.00  0.00    -0.059 A 
ATOM      9  C   UNL     1      -1.234  -1.473   0.083  1.00  0.00    -0.019 A 
ATOM     10  C   UNL     1      -0.185  -0.620  -0.231  1.00  0.00     0.138 A 
ATOM     11  O   UNL     1       1.067  -1.003  -0.191  1.00  0.00    -0.423 OA
ENDROOT
TORSDOF 0

