REMARK SMILES O=C(CCNNC(=O)c1ccncc1)NCc1ccccc1
REMARK SMILES IDX 3 1 2 2 1 3 15 4 16 5 17 6 18 7 22 8 19 9 21 10 20 11 4 12
REMARK SMILES IDX 5 13 6 14 7 15 8 16 9 17 10 18 14 19 11 20 13 21 12 22
REMARK H PARENT
REMARK Flexibility Score: inf
ROOT
ATOM      1  C   UNL     1       0.192  -1.095  -0.203  1.00  0.00     0.041 C 
ENDROOT
BRANCH   1   2
ATOM      2  C   UNL     1       1.651  -0.862  -0.151  1.00  0.00     0.221 C 
ATOM      3  O   UNL     1       2.044   0.337  -0.273  1.00  0.00    -0.275 OA
ATOM      4  N   UNL     1       2.581  -1.769   0.430  1.00  0.00    -0.352 N 
BRANCH   4   5
ATOM      5  C   UNL     1       3.709  -1.310   1.236  1.00  0.00     0.043 C 
BRANCH   5   6
ATOM      6  C   UNL     1       4.504  -0.277   0.533  1.00  0.00    -0.029 A 
ATOM      7  C   UNL     1       4.888   0.878   1.201  1.00  0.00    -0.057 A 
ATOM      8  C   UNL     1       5.172  -0.530  -0.650  1.00  0.00    -0.057 A 
ATOM      9  C   UNL     1       5.995   1.599   0.781  1.00  0.00    -0.062 A 
ATOM     10  C   UNL     1       6.311   0.132  -1.036  1.00  0.00    -0.062 A 
ATOM     11  C   UNL     1       6.854   1.069  -0.167  1.00  0.00    -0.062 A 
ENDBRANCH   5   6
ENDBRANCH   4   5
ENDBRANCH   1   2
BRANCH   1  12
ATOM     12  C   UNL     1      -0.380  -1.568   1.106  1.00  0.00     0.024 C 
BRANCH  12  13
ATOM     13  N   UNL     1      -1.674  -1.003   1.396  1.00  0.00    -0.234 NA
BRANCH  13  14
ATOM     14  N   UNL     1      -2.439  -0.756   0.263  1.00  0.00    -0.287 N 
ATOM     15  C   UNL     1      -3.843  -1.022   0.181  1.00  0.00     0.265 C 
ATOM     16  O   UNL     1      -4.250  -2.009   0.865  1.00  0.00    -0.268 OA
BRANCH  15  17
ATOM     17  C   UNL     1      -4.814   0.017  -0.189  1.00  0.00     0.044 A 
ATOM     18  C   UNL     1      -4.494   0.757  -1.320  1.00  0.00    -0.031 A 
ATOM     19  C   UNL     1      -5.555   0.699   0.769  1.00  0.00    -0.031 A 
ATOM     20  C   UNL     1      -5.160   1.952  -1.556  1.00  0.00     0.028 A 
ATOM     21  C   UNL     1      -5.796   2.064   0.673  1.00  0.00     0.028 A 
ATOM     22  N   UNL     1      -5.494   2.698  -0.484  1.00  0.00    -0.265 NA
ENDBRANCH  15  17
ENDBRANCH  13  14
ENDBRANCH  12  13
ENDBRANCH   1  12
TORSDOF 7

