REMARK SMILES Cc1cc(C)c2nc(-c3ccccn3)cc(C(=O)Nc3ccc(S(=O)(=O)Nc4onc(C)c4C)cc3)c2c1
REMARK SMILES IDX 23 1 22 2 21 3 20 4 36 5 35 6 24 7 25 8 26 9 27 10 28 11
REMARK SMILES IDX 32 12 31 13 30 14 33 15 29 16 34 17 19 18 17 19 18 20 16 21
REMARK SMILES IDX 15 22 37 23 8 24 6 25 38 26 7 27 4 28 2 29 5 30 3 31 1 32
REMARK SMILES IDX 9 33 10 34 14 35 11 36 13 37 12 38
REMARK H PARENT
REMARK Flexibility Score: inf
ROOT
ATOM      1  C   UNL     1      -3.799  -0.533   0.458  1.00  0.00     0.088 A 
ATOM      2  C   UNL     1      -2.803  -0.349   1.406  1.00  0.00    -0.040 A 
ATOM      3  C   UNL     1      -1.550   0.132   1.049  1.00  0.00    -0.037 A 
ATOM      4  C   UNL     1      -1.243   0.409  -0.277  1.00  0.00     0.041 A 
ATOM      5  C   UNL     1      -2.338   0.594  -1.113  1.00  0.00    -0.037 A 
ATOM      6  C   UNL     1      -3.581   0.071  -0.774  1.00  0.00    -0.040 A 
ENDROOT
BRANCH   1   7
ATOM      7  S   UNL     1      -4.934  -1.867   0.583  1.00  0.00     0.264 S 
ATOM      8  O   UNL     1      -4.469  -2.890   1.595  1.00  0.00    -0.201 OA
ATOM      9  O   UNL     1      -5.081  -2.599  -0.715  1.00  0.00    -0.201 OA
BRANCH   7  10
ATOM     10  N   UNL     1      -6.501  -1.329   1.051  1.00  0.00    -0.247 N 
BRANCH  10  11
ATOM     11  C   UNL     1      -6.993  -0.056   0.686  1.00  0.00     0.241 A 
ATOM     12  C   UNL     1      -8.909   2.401  -1.126  1.00  0.00    -0.018 C 
ATOM     13  C   UNL     1      -7.769   1.628  -0.545  1.00  0.00     0.086 A 
ATOM     14  N   UNL     1      -6.928   2.077   0.416  1.00  0.00    -0.082 NA
ATOM     15  C   UNL     1      -7.680   0.243  -0.469  1.00  0.00     0.037 A 
ATOM     16  O   UNL     1      -6.558   1.076   1.156  1.00  0.00    -0.337 OA
ATOM     17  C   UNL     1      -8.180  -0.661  -1.527  1.00  0.00    -0.032 C 
ENDBRANCH  10  11
ENDBRANCH   7  10
ENDBRANCH   1   7
BRANCH   4  18
ATOM     18  N   UNL     1       0.043   0.106  -0.831  1.00  0.00    -0.322 N 
ATOM     19  C   UNL     1       1.145   1.011  -0.707  1.00  0.00     0.256 C 
ATOM     20  O   UNL     1       0.865   2.232  -0.739  1.00  0.00    -0.269 OA
BRANCH  19  21
ATOM     21  C   UNL     1       2.519   0.564  -0.792  1.00  0.00     0.051 A 
ATOM     22  C   UNL     1       3.529   1.293  -1.408  1.00  0.00    -0.021 A 
ATOM     23  C   UNL     1       2.824  -0.640  -0.166  1.00  0.00     0.014 A 
ATOM     24  C   UNL     1       4.822   0.783  -1.442  1.00  0.00     0.090 A 
ATOM     25  C   UNL     1       4.009  -1.256  -0.549  1.00  0.00     0.075 A 
ATOM     26  C   UNL     1       2.212  -1.002   1.025  1.00  0.00    -0.049 A 
ATOM     27  N   UNL     1       4.901  -0.558  -1.256  1.00  0.00    -0.246 NA
ATOM     28  C   UNL     1       4.301  -2.456   0.088  1.00  0.00    -0.024 A 
ATOM     29  C   UNL     1       2.775  -1.950   1.871  1.00  0.00    -0.050 A 
ATOM     30  C   UNL     1       5.504  -3.186  -0.413  1.00  0.00    -0.038 C 
ATOM     31  C   UNL     1       3.761  -2.765   1.330  1.00  0.00    -0.054 A 
ATOM     32  C   UNL     1       2.694  -1.801   3.357  1.00  0.00    -0.040 C 
BRANCH  24  33
ATOM     33  C   UNL     1       6.002   1.648  -1.288  1.00  0.00     0.089 A 
ATOM     34  C   UNL     1       7.201   1.080  -1.705  1.00  0.00    -0.034 A 
ATOM     35  N   UNL     1       6.120   2.511  -0.251  1.00  0.00    -0.255 NA
ATOM     36  C   UNL     1       8.428   1.497  -1.204  1.00  0.00    -0.059 A 
ATOM     37  C   UNL     1       7.244   2.583   0.503  1.00  0.00     0.028 A 
ATOM     38  C   UNL     1       8.416   1.959   0.102  1.00  0.00    -0.044 A 
ENDBRANCH  24  33
ENDBRANCH  19  21
ENDBRANCH   4  18
TORSDOF 6

