REMARK SMILES CCCC(=O)O
REMARK SMILES IDX 3 1 2 2 1 3 4 4 5 5 6 6
REMARK H PARENT
REMARK Flexibility Score: inf
ROOT
ATOM      1  C   UNL     1       0.196  -0.987  -0.443  1.00  0.00     0.045 C 
ENDROOT
BRANCH   1   2
ATOM      2  C   UNL     1       1.498  -0.491   0.118  1.00  0.00    -0.046 C 
ATOM      3  C   UNL     1       2.018   0.746  -0.540  1.00  0.00    -0.065 C 
ENDBRANCH   1   2
BRANCH   1   4
ATOM      4  C   UNL     1      -0.930  -0.045  -0.199  1.00  0.00     0.303 C 
ATOM      5  O   UNL     1      -2.096  -0.496  -0.306  1.00  0.00    -0.252 OA
ATOM      6  O   UNL     1      -0.687   1.273  -0.526  1.00  0.00    -0.481 OA
ENDBRANCH   1   4
TORSDOF 2

