
     RDKit          3D

 24 28  0  0  0  0  0  0  0  0999 V2000
   -1.2541    2.4507    0.9796 N   0  0  0  0  0  0  0  0  0  0  0  0
    0.1557    2.2311    0.8552 C   0  0  0  0  0  0  0  0  0  0  0  0
    1.0021    3.2552    0.6117 N   0  0  0  0  0  0  0  0  0  0  0  0
    2.1479    3.0375   -0.0780 C   0  0  0  0  0  0  0  0  0  0  0  0
    2.6520    1.7932   -0.2592 N   0  0  0  0  0  0  0  0  0  0  0  0
    1.9464    0.7587    0.2580 C   0  0  0  0  0  0  0  0  0  0  0  0
    0.6250    0.9522    0.6407 C   0  0  0  0  0  0  0  0  0  0  0  0
   -0.0254   -0.2748    0.5894 C   0  0  0  0  0  0  0  0  0  0  0  0
   -1.4497   -0.5074    0.3200 C   0  0  0  0  0  0  0  0  0  0  0  0
   -1.8803   -0.5197   -1.0005 C   0  0  0  0  0  0  0  0  0  0  0  0
   -3.1632   -0.2126   -1.3006 N   0  0  0  0  0  0  0  0  0  0  0  0
   -4.0473   -0.3216   -0.2799 C   0  0  0  0  0  0  0  0  0  0  0  0
   -5.3147    0.0917   -0.1909 N   0  0  0  0  0  0  0  0  0  0  0  0
   -5.8751   -0.4903    0.8876 C   0  0  0  0  0  0  0  0  0  0  0  0
   -4.8740   -1.1900    1.5502 C   0  0  0  0  0  0  0  0  0  0  0  0
   -3.6860   -0.8713    0.9373 C   0  0  0  0  0  0  0  0  0  0  0  0
   -2.3429   -0.9275    1.2659 C   0  0  0  0  0  0  0  0  0  0  0  0
    0.9847   -1.1783    0.5739 N   0  0  0  0  0  0  0  0  0  0  0  0
    2.1163   -0.5845    0.1979 N   0  0  0  0  0  0  0  0  0  0  0  0
    3.2193   -1.3180   -0.3745 C   0  0  0  0  0  0  0  0  0  0  0  0
    3.9480   -2.1773    0.6185 C   0  0  0  0  0  0  0  0  0  0  0  0
    5.3371   -2.3455    0.0147 C   0  0  0  0  0  0  0  0  0  0  0  0
    5.5340   -1.2066   -0.9450 C   0  0  0  0  0  0  0  0  0  0  0  0
    4.2440   -0.4450   -1.0303 C   0  0  0  0  0  0  0  0  0  0  0  0
  1  2  1  0
  2  3  2  0
  3  4  1  0
  4  5  2  0
  5  6  1  0
  6  7  2  0
  7  8  1  0
  8  9  1  0
  9 10  2  0
 10 11  1  0
 11 12  2  0
 12 13  1  0
 13 14  1  0
 14 15  2  0
 15 16  1  0
 16 17  2  0
  8 18  2  0
 18 19  1  0
 19 20  1  0
 20 21  1  0
 21 22  1  0
 22 23  1  0
 23 24  1  0
  7  2  1  0
 17  9  1  0
 24 20  1  0
 19  6  1  0
 16 12  1  0
M  END
>  <zinc_id>  (1) 
ZINC000020148984

>  <smiles>  (1) 
Nc1ncnc2c1c(-c1cnc3[nH]ccc3c1)nn2C1CCCC1

$$$$
