
     RDKit          3D

 29 30  0  0  0  0  0  0  0  0999 V2000
    9.2625    2.3312    0.4755 C   0  0  0  0  0  0  0  0  0  0  0  0
    8.9257    0.9780   -0.1315 C   0  0  0  0  0  0  0  0  0  0  0  0
    8.5764    0.0648    1.0211 C   0  0  0  0  0  0  0  0  0  0  0  0
    8.1197   -1.2930    0.5691 C   0  0  0  0  0  0  0  0  0  0  0  0
    7.5325   -1.2885   -0.8166 C   0  0  0  0  0  0  0  0  0  0  0  0
    6.0463   -1.0413   -0.8248 C   0  0  0  0  0  0  0  0  0  0  0  0
    5.4347   -1.5333    0.4560 C   0  0  0  0  0  0  0  0  0  0  0  0
    4.5312   -0.5267    1.1130 C   0  0  0  0  0  0  0  0  0  0  0  0
    4.7561    0.8805    0.6399 C   0  0  0  0  0  0  0  0  0  0  0  0
    3.7732    1.2961   -0.4416 C   0  0  0  0  0  0  0  0  0  0  0  0
    2.8602    0.1699   -0.8366 C   0  0  0  0  0  0  0  0  0  0  0  0
    1.6109    0.1218    0.0071 C   0  0  0  0  0  0  0  0  0  0  0  0
    1.3792   -1.3331    0.3612 C   0  0  0  0  0  0  0  0  0  0  0  0
    0.5403   -1.4354    1.6108 C   0  0  0  0  0  0  0  0  0  0  0  0
   -0.7907   -0.7572    1.3825 C   0  0  0  0  0  0  0  0  0  0  0  0
   -1.4625   -1.4570    0.2337 C   0  0  0  0  0  0  0  0  0  0  0  0
   -2.6864   -2.0113    0.6904 O   0  0  0  0  0  0  0  0  0  0  0  0
   -3.8529   -1.2679    0.4947 C   0  0  0  0  0  0  0  0  0  0  0  0
   -3.7334    0.0721    0.6510 N   0  0  0  0  0  0  0  0  0  0  0  0
   -4.7305    0.9198    0.3151 C   0  0  0  0  0  0  0  0  0  0  0  0
   -4.9318    2.1077    0.9652 C   0  0  0  0  0  0  0  0  0  0  0  0
   -6.0843    2.8199    0.6558 C   0  0  0  0  0  0  0  0  0  0  0  0
   -7.2260    2.0786    0.3796 C   0  0  0  0  0  0  0  0  0  0  0  0
   -8.5939    2.6476    0.5061 C   0  0  0  0  0  0  0  0  0  0  0  0
   -7.0298    0.9201   -0.3619 C   0  0  0  0  0  0  0  0  0  0  0  0
   -5.7490    0.3930   -0.4694 C   0  0  0  0  0  0  0  0  0  0  0  0
   -5.5019   -0.8543   -1.0113 C   0  0  0  0  0  0  0  0  0  0  0  0
   -6.3322   -1.3031   -1.8314 O   0  0  0  0  0  0  0  0  0  0  0  0
   -4.6434   -1.6990   -0.4729 O   0  0  0  0  0  0  0  0  0  0  0  0
  1  2  1  0
  2  3  1  0
  3  4  1  0
  4  5  1  0
  5  6  1  0
  6  7  1  0
  7  8  1  0
  8  9  1  0
  9 10  1  0
 10 11  1  0
 11 12  1  0
 12 13  1  0
 13 14  1  0
 14 15  1  0
 15 16  1  0
 16 17  1  0
 17 18  1  0
 18 19  2  0
 19 20  1  0
 20 21  2  0
 21 22  1  0
 22 23  2  0
 23 24  1  0
 23 25  1  0
 25 26  2  0
 26 27  1  0
 27 28  2  0
 27 29  1  0
 29 18  1  0
 26 20  1  0
M  END
>  <zinc_id>  (1) 
ZINC000014128264

>  <smiles>  (1) 
CCCCCCCCCCCCCCCCOc1nc2ccc(C)cc2c(=O)o1

$$$$
