REMARK SMILES Cc1cc(C)cc(C(=O)N(C)[C@H](Cc2ccc(-c3ccccc3)cc2)C(=O)N[C@@H](Cc2c[nH]c3ccccc23)C(=O)O)c1
REMARK SMILES IDX 26 1 27 2 28 3 12 4 10 5 11 6 8 7 9 8 7 9 1 10 2 11 3 12
REMARK SMILES IDX 43 13 4 14 5 15 6 16 13 17 14 18 15 19 25 20 16 21 24 22
REMARK SMILES IDX 17 23 18 24 19 25 23 26 20 27 22 28 21 29 29 30 30 31 31 32
REMARK SMILES IDX 32 33 39 34 33 35 34 36 38 37 35 38 37 39 36 40 40 41 41 42
REMARK SMILES IDX 42 43
REMARK H PARENT
REMARK Flexibility Score: inf
ROOT
ATOM      1  C   UNL     1      -1.116   0.861  -0.742  1.00  0.00     0.243 C 
ATOM      2  O   UNL     1      -0.561   1.375  -1.729  1.00  0.00    -0.273 OA
ATOM      3  N   UNL     1      -2.447   0.312  -0.784  1.00  0.00    -0.341 N 
ENDROOT
BRANCH   1   4
ATOM      4  C   UNL     1      -0.134  -0.076   0.188  1.00  0.00     0.115 C 
BRANCH   4   5
ATOM      5  N   UNL     1       1.014   1.038   0.259  1.00  0.00    -0.329 N 
ATOM      6  C   UNL     1       1.804   1.317  -0.857  1.00  0.00     0.010 C 
BRANCH   5   7
ATOM      7  C   UNL     1       0.714   2.037   1.244  1.00  0.00     0.254 C 
ATOM      8  O   UNL     1       0.227   1.704   2.343  1.00  0.00    -0.269 OA
BRANCH   7   9
ATOM      9  C   UNL     1       1.119   3.429   1.010  1.00  0.00     0.040 A 
ATOM     10  C   UNL     1       4.010   5.747   1.567  1.00  0.00    -0.040 C 
ATOM     11  C   UNL     1       2.942   5.004   0.867  1.00  0.00    -0.050 A 
ATOM     12  C   UNL     1       2.405   5.441  -0.338  1.00  0.00    -0.056 A 
ATOM     13  C   UNL     1       2.330   3.917   1.480  1.00  0.00    -0.046 A 
ATOM     14  C   UNL     1       1.145   5.044  -0.764  1.00  0.00    -0.050 A 
ATOM     15  C   UNL     1       0.743   5.257  -2.188  1.00  0.00    -0.040 C 
ATOM     16  C   UNL     1       0.445   4.261   0.123  1.00  0.00    -0.046 A 
ENDBRANCH   7   9
ENDBRANCH   5   7
ENDBRANCH   4   5
BRANCH   4  17
ATOM     17  C   UNL     1       0.500  -0.858  -1.153  1.00  0.00     0.002 C 
BRANCH  17  18
ATOM     18  C   UNL     1       1.796  -1.392  -0.681  1.00  0.00    -0.045 A 
ATOM     19  C   UNL     1       2.665  -1.774  -1.675  1.00  0.00    -0.058 A 
ATOM     20  C   UNL     1       2.101  -1.669   0.620  1.00  0.00    -0.058 A 
ATOM     21  C   UNL     1       3.664  -2.706  -1.486  1.00  0.00    -0.054 A 
ATOM     22  C   UNL     1       3.247  -2.412   0.868  1.00  0.00    -0.054 A 
ATOM     23  C   UNL     1       3.825  -3.131  -0.171  1.00  0.00    -0.018 A 
BRANCH  23  24
ATOM     24  C   UNL     1       4.870  -4.136   0.074  1.00  0.00    -0.018 A 
ATOM     25  C   UNL     1       4.719  -5.082   1.073  1.00  0.00    -0.054 A 
ATOM     26  C   UNL     1       6.183  -3.797  -0.225  1.00  0.00    -0.054 A 
ATOM     27  C   UNL     1       5.817  -5.708   1.637  1.00  0.00    -0.062 A 
ATOM     28  C   UNL     1       7.236  -4.154   0.610  1.00  0.00    -0.062 A 
ATOM     29  C   UNL     1       7.022  -5.019   1.675  1.00  0.00    -0.062 A 
ENDBRANCH  23  24
ENDBRANCH  17  18
ENDBRANCH   4  17
ENDBRANCH   1   4
BRANCH   3  30
ATOM     30  C   UNL     1      -3.149   0.846  -2.128  1.00  0.00     0.131 C 
BRANCH  30  31
ATOM     31  C   UNL     1      -4.698   0.591  -1.545  1.00  0.00     0.006 C 
BRANCH  31  32
ATOM     32  C   UNL     1      -4.658  -0.746  -0.936  1.00  0.00    -0.020 A 
ATOM     33  C   UNL     1      -4.697  -1.967  -1.583  1.00  0.00     0.005 A 
ATOM     34  C   UNL     1      -5.217  -0.994   0.311  1.00  0.00     0.003 A 
ATOM     35  N   UNL     1      -5.423  -2.837  -0.861  1.00  0.00    -0.361 N 
ATOM     36  C   UNL     1      -5.577  -2.326   0.375  1.00  0.00     0.046 A 
ATOM     37  C   UNL     1      -5.706  -0.173   1.295  1.00  0.00    -0.053 A 
ATOM     38  C   UNL     1      -6.129  -2.823   1.541  1.00  0.00    -0.038 A 
ATOM     39  C   UNL     1      -6.295  -0.612   2.448  1.00  0.00    -0.062 A 
ATOM     40  C   UNL     1      -6.517  -1.978   2.572  1.00  0.00    -0.060 A 
ENDBRANCH  31  32
ENDBRANCH  30  31
BRANCH  30  41
ATOM     41  C   UNL     1      -3.131   2.395  -1.585  1.00  0.00     0.326 C 
ATOM     42  O   UNL     1      -3.516   3.214  -2.449  1.00  0.00    -0.250 OA
ATOM     43  O   UNL     1      -3.572   2.580  -0.300  1.00  0.00    -0.480 OA
ENDBRANCH  30  41
ENDBRANCH   3  30
TORSDOF 11

