REMARK SMILES C(#Cc1nc2ncccc2nc1OCCN1CCCC1)c1ccccc1
REMARK SMILES IDX 13 1 12 2 3 3 4 4 5 5 11 6 6 7 10 8 7 9 9 10 8 11 2 12 1 13
REMARK SMILES IDX 21 14 22 15 26 16 23 17 25 18 24 19 14 20 15 21 16 22 17 23
REMARK SMILES IDX 20 24 18 25 19 26
REMARK H PARENT
REMARK Flexibility Score: inf
ROOT
ATOM      1  O   UNL     1       1.345   0.582  -0.386  1.00  0.00    -0.474 OA
ENDROOT
BRANCH   1   2
ATOM      2  C   UNL     1       0.852  -0.721  -0.365  1.00  0.00     0.249 A 
ATOM      3  C   UNL     1      -0.473  -0.858  -0.760  1.00  0.00     0.178 A 
ATOM      4  N   UNL     1      -0.922  -2.135  -0.817  1.00  0.00    -0.212 NA
ATOM      5  C   UNL     1      -0.269  -3.155  -0.208  1.00  0.00     0.179 A 
ATOM      6  N   UNL     1       1.506  -1.727   0.266  1.00  0.00    -0.208 NA
ATOM      7  N   UNL     1      -0.976  -4.245   0.168  1.00  0.00    -0.235 NA
ATOM      8  C   UNL     1       0.827  -2.854   0.593  1.00  0.00     0.112 A 
ATOM      9  C   UNL     1      -0.497  -5.126   1.075  1.00  0.00     0.029 A 
ATOM     10  C   UNL     1       1.044  -3.515   1.797  1.00  0.00    -0.031 A 
ATOM     11  C   UNL     1       0.480  -4.761   1.965  1.00  0.00    -0.041 A 
BRANCH   3  12
ATOM     12  C   UNL     1      -1.369   0.276  -0.818  1.00  0.00    -0.036 C 
ATOM     13  C   UNL     1      -2.269   1.044  -0.533  1.00  0.00    -0.060 C 
BRANCH  13  14
ATOM     14  C   UNL     1      -3.475   1.628   0.012  1.00  0.00     0.025 A 
ATOM     15  C   UNL     1      -3.606   2.999  -0.098  1.00  0.00    -0.047 A 
ATOM     16  C   UNL     1      -4.622   0.898   0.234  1.00  0.00    -0.047 A 
ATOM     17  C   UNL     1      -4.831   3.614  -0.328  1.00  0.00    -0.061 A 
ATOM     18  C   UNL     1      -5.877   1.467   0.054  1.00  0.00    -0.061 A 
ATOM     19  C   UNL     1      -5.948   2.835  -0.083  1.00  0.00    -0.062 A 
ENDBRANCH  13  14
ENDBRANCH   3  12
ENDBRANCH   1   2
BRANCH   1  20
ATOM     20  C   UNL     1       2.099   1.026  -1.499  1.00  0.00     0.103 C 
BRANCH  20  21
ATOM     21  C   UNL     1       3.571   0.715  -1.253  1.00  0.00     0.033 C 
BRANCH  21  22
ATOM     22  N   UNL     1       4.220   1.961  -0.863  1.00  0.00    -0.300 NA
ATOM     23  C   UNL     1       5.545   1.724  -0.348  1.00  0.00    -0.002 C 
ATOM     24  C   UNL     1       3.456   2.606   0.172  1.00  0.00    -0.002 C 
ATOM     25  C   UNL     1       5.787   2.760   0.734  1.00  0.00    -0.039 C 
ATOM     26  C   UNL     1       4.403   2.958   1.288  1.00  0.00    -0.039 C 
ENDBRANCH  21  22
ENDBRANCH  20  21
ENDBRANCH   1  20
TORSDOF 6

