REMARK SMILES Nc1ncnc2c1c(-c1cnc3[nH]ccc3c1)nn2C1CCCC1
REMARK SMILES IDX 1 1 2 2 3 3 4 4 5 5 6 6 7 7 8 8 18 9 19 10 9 11 10 12 17 13
REMARK SMILES IDX 11 14 16 15 12 16 15 17 13 18 14 19 20 20 21 21 24 22 22 23
REMARK SMILES IDX 23 24
REMARK H PARENT
REMARK Flexibility Score: inf
ROOT
ATOM      1  N   UNL     1      -1.254   2.451   0.980  1.00  0.00    -0.383 N 
ATOM      2  C   UNL     1       0.156   2.231   0.855  1.00  0.00     0.138 A 
ATOM      3  N   UNL     1       1.002   3.255   0.612  1.00  0.00    -0.219 NA
ATOM      4  C   UNL     1       2.148   3.038  -0.078  1.00  0.00     0.120 A 
ATOM      5  N   UNL     1       2.652   1.793  -0.259  1.00  0.00    -0.217 NA
ATOM      6  C   UNL     1       1.946   0.759   0.258  1.00  0.00     0.164 A 
ATOM      7  C   UNL     1       0.625   0.952   0.641  1.00  0.00     0.089 A 
ATOM      8  C   UNL     1      -0.025  -0.275   0.589  1.00  0.00     0.107 A 
ATOM      9  N   UNL     1       0.985  -1.178   0.574  1.00  0.00    -0.170 NA
ATOM     10  N   UNL     1       2.116  -0.585   0.198  1.00  0.00    -0.243 N 
ENDROOT
BRANCH   8  11
ATOM     11  C   UNL     1      -1.450  -0.507   0.320  1.00  0.00     0.022 A 
ATOM     12  C   UNL     1      -1.880  -0.520  -1.000  1.00  0.00     0.039 A 
ATOM     13  C   UNL     1      -2.343  -0.927   1.266  1.00  0.00    -0.040 A 
ATOM     14  N   UNL     1      -3.163  -0.213  -1.301  1.00  0.00    -0.238 NA
ATOM     15  C   UNL     1      -3.686  -0.871   0.937  1.00  0.00     0.019 A 
ATOM     16  C   UNL     1      -4.047  -0.322  -0.280  1.00  0.00     0.137 A 
ATOM     17  C   UNL     1      -4.874  -1.190   1.550  1.00  0.00    -0.035 A 
ATOM     18  N   UNL     1      -5.315   0.092  -0.191  1.00  0.00    -0.346 N 
ATOM     19  C   UNL     1      -5.875  -0.490   0.888  1.00  0.00     0.003 A 
ENDBRANCH   8  11
BRANCH  10  20
ATOM     20  C   UNL     1       3.219  -1.318  -0.374  1.00  0.00     0.054 C 
ATOM     21  C   UNL     1       3.948  -2.177   0.619  1.00  0.00    -0.030 C 
ATOM     22  C   UNL     1       4.244  -0.445  -1.030  1.00  0.00    -0.030 C 
ATOM     23  C   UNL     1       5.337  -2.345   0.015  1.00  0.00    -0.051 C 
ATOM     24  C   UNL     1       5.534  -1.207  -0.945  1.00  0.00    -0.051 C 
ENDBRANCH  10  20
TORSDOF 2

