REMARK SMILES Cc1ccc(/C=C2\CNC/C(=C\c3ccc(C)cc3)C2=O)cc1
REMARK SMILES IDX 6 1 7 2 8 3 9 4 10 5 11 6 12 7 20 8 21 9 5 10 1 11 2 12 3 13
REMARK SMILES IDX 23 14 4 15 22 16 13 17 14 18 19 19 15 20 18 21 16 22 17 23
REMARK H PARENT
REMARK Flexibility Score: inf
ROOT
ATOM      1  C   UNL     1       2.425  -1.236  -0.769  1.00  0.00    -0.047 C 
ATOM      2  C   UNL     1       1.319  -0.511  -0.894  1.00  0.00     0.014 C 
ATOM      3  C   UNL     1       1.286   0.886  -0.356  1.00  0.00     0.025 C 
ATOM      4  N   UNL     1       0.265   1.685  -0.969  1.00  0.00    -0.308 NA
ATOM      5  C   UNL     1      -1.032   1.094  -1.021  1.00  0.00     0.025 C 
ATOM      6  C   UNL     1      -1.117  -0.295  -0.559  1.00  0.00     0.014 C 
ATOM      7  C   UNL     1      -2.225  -0.708   0.011  1.00  0.00    -0.047 C 
ATOM      8  C   UNL     1       0.012  -1.184  -0.868  1.00  0.00     0.187 C 
ATOM      9  O   UNL     1      -0.117  -2.421  -0.713  1.00  0.00    -0.289 OA
ENDROOT
BRANCH   1  10
ATOM     10  C   UNL     1       3.633  -0.725  -0.112  1.00  0.00    -0.025 A 
ATOM     11  C   UNL     1       7.072   0.473   2.050  1.00  0.00    -0.040 C 
ATOM     12  C   UNL     1       5.969  -0.085   1.244  1.00  0.00    -0.051 A 
ATOM     13  C   UNL     1       4.917  -0.676   1.927  1.00  0.00    -0.059 A 
ATOM     14  C   UNL     1       5.853   0.058  -0.119  1.00  0.00    -0.059 A 
ATOM     15  C   UNL     1       3.755  -1.011   1.242  1.00  0.00    -0.055 A 
ATOM     16  C   UNL     1       4.669  -0.151  -0.800  1.00  0.00    -0.055 A 
ENDBRANCH   1  10
BRANCH   7  17
ATOM     17  C   UNL     1      -3.525  -0.145  -0.378  1.00  0.00    -0.025 A 
ATOM     18  C   UNL     1      -4.531  -1.085  -0.572  1.00  0.00    -0.055 A 
ATOM     19  C   UNL     1      -3.948   1.100   0.058  1.00  0.00    -0.055 A 
ATOM     20  C   UNL     1      -5.868  -0.780  -0.363  1.00  0.00    -0.059 A 
ATOM     21  C   UNL     1      -5.262   1.395   0.336  1.00  0.00    -0.059 A 
ATOM     22  C   UNL     1      -6.205   0.375   0.328  1.00  0.00    -0.051 A 
ATOM     23  C   UNL     1      -7.346   0.381   1.297  1.00  0.00    -0.040 C 
ENDBRANCH   7  17
TORSDOF 2

