
     RDKit          3D

 33 38  0  0  0  0  0  0  0  0999 V2000
    4.8853   -3.6689    1.6112 C   0  0  0  0  0  0  0  0  0  0  0  0
    5.3489   -2.9090    0.4527 N   0  0  0  0  0  0  0  0  0  0  0  0
    4.4415   -3.1399   -0.6375 C   0  0  0  0  0  0  0  0  0  0  0  0
    3.0758   -2.5036   -0.4090 C   0  0  0  0  0  0  0  0  0  0  0  0
    3.3239   -1.0815   -0.2031 N   0  0  0  0  0  0  0  0  0  0  0  0
    2.3278   -0.0886   -0.4807 C   0  0  0  0  0  0  0  0  0  0  0  0
    2.6120    0.8976   -1.3663 N   0  0  0  0  0  0  0  0  0  0  0  0
    2.0090    2.1011   -1.3361 C   0  0  0  0  0  0  0  0  0  0  0  0
    2.6718    3.2881   -1.5939 C   0  0  0  0  0  0  0  0  0  0  0  0
    2.0598    4.5242   -1.4330 C   0  0  0  0  0  0  0  0  0  0  0  0
    0.9051    4.6068   -0.6663 C   0  0  0  0  0  0  0  0  0  0  0  0
    0.2665    3.4073   -0.3802 C   0  0  0  0  0  0  0  0  0  0  0  0
    0.8590    2.1789   -0.5636 C   0  0  0  0  0  0  0  0  0  0  0  0
    0.3501    1.0034   -0.0235 C   0  0  0  0  0  0  0  0  0  0  0  0
   -0.9344    1.1459    0.6713 C   0  0  0  0  0  0  0  0  0  0  0  0
   -2.1237    0.6551    0.3113 C   0  0  0  0  0  0  0  0  0  0  0  0
   -2.2770   -0.6106   -0.3607 C   0  0  0  0  0  0  0  0  0  0  0  0
   -1.2981   -1.5788   -0.5662 C   0  0  0  0  0  0  0  0  0  0  0  0
   -1.8645   -2.8082   -0.5620 N   0  0  0  0  0  0  0  0  0  0  0  0
   -3.2051   -2.6556   -0.5992 C   0  0  0  0  0  0  0  0  0  0  0  0
   -4.2824   -3.4903   -0.8435 C   0  0  0  0  0  0  0  0  0  0  0  0
   -5.5751   -2.9866   -0.7684 C   0  0  0  0  0  0  0  0  0  0  0  0
   -5.7467   -1.6242   -0.9799 C   0  0  0  0  0  0  0  0  0  0  0  0
   -4.6173   -0.8331   -1.1529 C   0  0  0  0  0  0  0  0  0  0  0  0
   -3.4674   -1.3019   -0.5339 C   0  0  0  0  0  0  0  0  0  0  0  0
   -3.1218    1.4420    1.0448 C   0  0  0  0  0  0  0  0  0  0  0  0
   -4.2796    1.6020    0.6163 O   0  0  0  0  0  0  0  0  0  0  0  0
   -2.4803    2.0743    2.1582 N   0  0  0  0  0  0  0  0  0  0  0  0
   -1.0866    2.0256    1.8332 C   0  0  0  0  0  0  0  0  0  0  0  0
   -0.1862    2.4470    2.6095 O   0  0  0  0  0  0  0  0  0  0  0  0
    1.2845    0.1008    0.3647 N   0  0  0  0  0  0  0  0  0  0  0  0
    4.7342   -0.6975   -0.2000 C   0  0  0  0  0  0  0  0  0  0  0  0
    5.3908   -1.5218    0.8803 C   0  0  0  0  0  0  0  0  0  0  0  0
  1  2  1  0
  2  3  1  0
  3  4  1  0
  4  5  1  0
  5  6  1  0
  6  7  2  0
  7  8  1  0
  8  9  2  0
  9 10  1  0
 10 11  2  0
 11 12  1  0
 12 13  2  0
 13 14  1  0
 14 15  1  0
 15 16  2  0
 16 17  1  0
 17 18  2  0
 18 19  1  0
 19 20  1  0
 20 21  2  0
 21 22  1  0
 22 23  2  0
 23 24  1  0
 24 25  2  0
 16 26  1  0
 26 27  2  0
 26 28  1  0
 28 29  1  0
 29 30  2  0
 14 31  2  0
  5 32  1  0
 32 33  1  0
 33  2  1  0
 31  6  1  0
 13  8  1  0
 29 15  1  0
 25 17  1  0
 25 20  1  0
M  END
>  <zinc_id>  (1) 
ZINC000003973984

>  <smiles>  (1) 
CN1CCN(c2nc(C3=C(c4c[nH]c5ccccc45)C(=O)NC3=O)c3ccccc3n2)CC1

$$$$
