
     RDKit          3D

 29 32  0  0  0  0  0  0  0  0999 V2000
    8.7155   -0.2389    1.3781 C   0  0  0  0  0  0  0  0  0  0  0  0
    7.6268   -0.4290    0.3701 C   0  0  0  0  0  0  0  0  0  0  0  0
    7.8677   -1.2574   -0.7072 C   0  0  0  0  0  0  0  0  0  0  0  0
    7.0148   -1.0980   -1.7916 C   0  0  0  0  0  0  0  0  0  0  0  0
    7.3157   -1.8582   -3.0371 C   0  0  0  0  0  0  0  0  0  0  0  0
    5.9819   -0.2370   -1.7428 N   0  0  0  0  0  0  0  0  0  0  0  0
    5.5658    0.1357   -0.5216 C   0  0  0  0  0  0  0  0  0  0  0  0
    4.0685    1.0906   -0.3786 S   0  0  0  0  0  0  0  0  0  0  0  0
    2.9979    0.8031   -1.8200 C   0  0  0  0  0  0  0  0  0  0  0  0
    1.7315    0.2148   -1.3078 C   0  0  0  0  0  0  0  0  0  0  0  0
    1.8472   -0.8072   -0.5683 O   0  0  0  0  0  0  0  0  0  0  0  0
    0.4970    0.8841   -1.2713 N   0  0  0  0  0  0  0  0  0  0  0  0
   -0.3600    0.9091   -0.1549 C   0  0  0  0  0  0  0  0  0  0  0  0
   -0.4920    0.0482    0.8829 N   0  0  0  0  0  0  0  0  0  0  0  0
   -1.1544    0.6034    1.8993 C   0  0  0  0  0  0  0  0  0  0  0  0
   -2.3660    1.1446    1.4838 C   0  0  0  0  0  0  0  0  0  0  0  0
   -3.6571    1.2306    2.2134 C   0  0  0  0  0  0  0  0  0  0  0  0
   -4.4879    0.0858    1.7254 C   0  0  0  0  0  0  0  0  0  0  0  0
   -3.8721   -1.1495    1.7183 C   0  0  0  0  0  0  0  0  0  0  0  0
   -4.3870   -2.2358    1.0229 C   0  0  0  0  0  0  0  0  0  0  0  0
   -5.4198   -1.9446    0.1444 C   0  0  0  0  0  0  0  0  0  0  0  0
   -5.9882   -0.7013    0.0586 C   0  0  0  0  0  0  0  0  0  0  0  0
   -7.2586   -0.6032   -0.4430 C   0  0  0  0  0  0  0  0  0  0  0  0
   -7.7856    0.6374   -0.6828 C   0  0  0  0  0  0  0  0  0  0  0  0
   -7.1013    1.7463   -0.2171 C   0  0  0  0  0  0  0  0  0  0  0  0
   -6.0280    1.5786    0.6276 C   0  0  0  0  0  0  0  0  0  0  0  0
   -5.4438    0.3467    0.7723 C   0  0  0  0  0  0  0  0  0  0  0  0
   -1.9192    1.6271   -0.1049 S   0  0  0  0  0  0  0  0  0  0  0  0
    6.4907    0.2974    0.4519 N   0  0  0  0  0  0  0  0  0  0  0  0
  1  2  1  0
  2  3  2  0
  3  4  1  0
  4  5  1  0
  4  6  2  0
  6  7  1  0
  7  8  1  0
  8  9  1  0
  9 10  1  0
 10 11  2  0
 10 12  1  0
 12 13  1  0
 13 14  2  0
 14 15  1  0
 15 16  2  0
 16 17  1  0
 17 18  1  0
 18 19  2  0
 19 20  1  0
 20 21  2  0
 21 22  1  0
 22 23  2  0
 23 24  1  0
 24 25  2  0
 25 26  1  0
 26 27  2  0
 16 28  1  0
  7 29  2  0
 29  2  1  0
 28 13  1  0
 27 18  1  0
 27 22  1  0
M  END
>  <zinc_id>  (1) 
ZINC000000818861

>  <smiles>  (1) 
Cc1cc(C)nc(SCC(=O)Nc2ncc(Cc3cccc4ccccc34)s2)n1

$$$$
