REMARK SMILES Oc1ccc(-c2nc(-c3ccc(F)cc3)c(-c3ccncc3)[nH]2)cc1
REMARK SMILES IDX 6 1 7 2 8 3 16 4 23 5 5 6 1 7 2 8 3 9 25 10 4 11 24 12 9 13
REMARK SMILES IDX 10 14 15 15 11 16 14 17 12 18 13 19 17 20 18 21 22 22 19 23
REMARK SMILES IDX 21 24 20 25
REMARK H PARENT
REMARK Flexibility Score: inf
ROOT
ATOM      1  C   UNL     1       1.649   0.325   0.015  1.00  0.00     0.138 A 
ATOM      2  N   UNL     1       0.833  -0.533   0.674  1.00  0.00    -0.228 NA
ATOM      3  C   UNL     1      -0.459  -0.259   0.376  1.00  0.00     0.097 A 
ATOM      4  C   UNL     1      -0.452   0.891  -0.404  1.00  0.00     0.074 A 
ATOM      5  N   UNL     1       0.846   1.207  -0.595  1.00  0.00    -0.337 N 
ENDROOT
BRANCH   1   6
ATOM      6  C   UNL     1       3.091   0.141  -0.164  1.00  0.00     0.017 A 
ATOM      7  O   UNL     1       6.883  -1.090   0.679  1.00  0.00    -0.508 OA
ATOM      8  C   UNL     1       5.667  -0.589   0.216  1.00  0.00     0.115 A 
ATOM      9  C   UNL     1       5.300   0.734   0.432  1.00  0.00    -0.019 A 
ATOM     10  C   UNL     1       4.850  -1.345  -0.615  1.00  0.00    -0.019 A 
ATOM     11  C   UNL     1       3.991   1.136   0.200  1.00  0.00    -0.048 A 
ATOM     12  C   UNL     1       3.494  -1.081  -0.659  1.00  0.00    -0.048 A 
ENDBRANCH   1   6
BRANCH   3  13
ATOM     13  C   UNL     1      -1.608  -1.171   0.422  1.00  0.00     0.003 A 
ATOM     14  C   UNL     1      -2.669  -0.965   1.296  1.00  0.00    -0.050 A 
ATOM     15  C   UNL     1      -1.393  -2.493   0.052  1.00  0.00    -0.050 A 
ATOM     16  C   UNL     1      -3.777  -1.785   1.127  1.00  0.00    -0.026 A 
ATOM     17  C   UNL     1      -2.414  -3.418   0.133  1.00  0.00    -0.026 A 
ATOM     18  C   UNL     1      -3.699  -2.957   0.388  1.00  0.00     0.123 A 
ATOM     19  F   UNL     1      -4.806  -3.633  -0.011  1.00  0.00    -0.207 F 
ENDBRANCH   3  13
BRANCH   4  20
ATOM     20  C   UNL     1      -1.541   1.870  -0.412  1.00  0.00     0.003 A 
ATOM     21  C   UNL     1      -1.315   3.227  -0.217  1.00  0.00    -0.034 A 
ATOM     22  C   UNL     1      -2.802   1.530  -0.880  1.00  0.00    -0.034 A 
ATOM     23  C   UNL     1      -2.289   4.121  -0.630  1.00  0.00     0.027 A 
ATOM     24  C   UNL     1      -3.819   2.421  -0.559  1.00  0.00     0.027 A 
ATOM     25  N   UNL     1      -3.561   3.716  -0.864  1.00  0.00    -0.265 NA
ENDBRANCH   4  20
TORSDOF 3

