REMARK SMILES Cc1ccc(-c2ccc(F)cc2COc2ccc(CCC(=O)O)cc2)cc1
REMARK SMILES IDX 15 1 16 2 17 3 18 4 24 5 25 6 14 7 13 8 12 9 6 10 7 11 8 12
REMARK SMILES IDX 11 13 9 14 10 15 5 16 1 17 2 18 3 19 27 20 4 21 26 22 19 23
REMARK SMILES IDX 20 24 21 25 22 26 23 27
REMARK H PARENT
REMARK Flexibility Score: inf
ROOT
ATOM      1  C   UNL     1       1.399  -0.685  -1.903  1.00  0.00     0.119 A 
ATOM      2  C   UNL     1       2.371   0.304  -1.914  1.00  0.00    -0.020 A 
ATOM      3  C   UNL     1       3.638   0.100  -1.385  1.00  0.00    -0.055 A 
ATOM      4  C   UNL     1       3.965  -1.124  -0.814  1.00  0.00    -0.047 A 
ATOM      5  C   UNL     1       3.133  -2.177  -1.160  1.00  0.00    -0.055 A 
ATOM      6  C   UNL     1       1.857  -1.976  -1.670  1.00  0.00    -0.020 A 
ENDROOT
BRANCH   1   7
ATOM      7  O   UNL     1       0.079  -0.322  -1.623  1.00  0.00    -0.489 OA
BRANCH   7   8
ATOM      8  C   UNL     1      -0.306  -0.125  -0.265  1.00  0.00     0.114 C 
BRANCH   8   9
ATOM      9  C   UNL     1      -1.534  -0.954  -0.061  1.00  0.00    -0.000 A 
ATOM     10  C   UNL     1      -2.741  -0.266  -0.036  1.00  0.00    -0.012 A 
ATOM     11  C   UNL     1      -3.894  -0.810  -0.589  1.00  0.00    -0.051 A 
ATOM     12  C   UNL     1      -3.844  -2.077  -1.149  1.00  0.00    -0.026 A 
ATOM     13  C   UNL     1      -1.589  -2.290  -0.436  1.00  0.00    -0.019 A 
ATOM     14  C   UNL     1      -2.791  -2.893  -0.779  1.00  0.00     0.123 A 
ATOM     15  F   UNL     1      -2.868  -4.231  -0.686  1.00  0.00    -0.207 F 
BRANCH  10  16
ATOM     16  C   UNL     1      -2.796   0.907   0.838  1.00  0.00    -0.018 A 
ATOM     17  C   UNL     1      -5.113   4.205   1.866  1.00  0.00    -0.040 C 
ATOM     18  C   UNL     1      -4.028   3.176   1.855  1.00  0.00    -0.051 A 
ATOM     19  C   UNL     1      -3.016   3.260   0.909  1.00  0.00    -0.059 A 
ATOM     20  C   UNL     1      -4.136   1.978   2.544  1.00  0.00    -0.059 A 
ATOM     21  C   UNL     1      -2.375   2.150   0.408  1.00  0.00    -0.054 A 
ATOM     22  C   UNL     1      -3.511   0.857   2.014  1.00  0.00    -0.054 A 
ENDBRANCH  10  16
ENDBRANCH   8   9
ENDBRANCH   7   8
ENDBRANCH   1   7
BRANCH   4  23
ATOM     23  C   UNL     1       4.820  -1.215   0.405  1.00  0.00    -0.017 C 
BRANCH  23  24
ATOM     24  C   UNL     1       5.986  -0.259   0.337  1.00  0.00     0.049 C 
BRANCH  24  25
ATOM     25  C   UNL     1       5.653   1.044   0.995  1.00  0.00     0.303 C 
ATOM     26  O   UNL     1       6.085   1.279   2.163  1.00  0.00    -0.252 OA
ATOM     27  O   UNL     1       5.556   2.145   0.138  1.00  0.00    -0.481 OA
ENDBRANCH  24  25
ENDBRANCH  23  24
ENDBRANCH   4  23
TORSDOF 7

