REMARK SMILES CC(C)C(=O)c1ccc(O)c(O)c1
REMARK SMILES IDX 4 1 5 2 2 3 1 4 3 5 6 6 7 7 13 8 8 9 11 10 9 11 12 12 10 13
REMARK H PARENT
REMARK Flexibility Score: inf
ROOT
ATOM      1  C   UNL     1      -1.655  -0.069  -0.422  1.00  0.00     0.165 C 
ATOM      2  O   UNL     1      -2.007   0.714  -1.356  1.00  0.00    -0.294 OA
ENDROOT
BRANCH   1   3
ATOM      3  C   UNL     1      -2.738  -0.339   0.577  1.00  0.00     0.017 C 
ATOM      4  C   UNL     1      -3.186   1.020   1.105  1.00  0.00    -0.055 C 
ATOM      5  C   UNL     1      -3.914  -0.853  -0.248  1.00  0.00    -0.055 C 
ENDBRANCH   1   3
BRANCH   1   6
ATOM      6  C   UNL     1      -0.240  -0.264  -0.104  1.00  0.00     0.022 A 
ATOM      7  C   UNL     1       0.216  -0.657   1.123  1.00  0.00    -0.047 A 
ATOM      8  C   UNL     1       0.691   0.134  -1.027  1.00  0.00    -0.006 A 
ATOM      9  C   UNL     1       1.570  -0.577   1.427  1.00  0.00    -0.016 A 
ATOM     10  C   UNL     1       1.987   0.470  -0.657  1.00  0.00     0.158 A 
ATOM     11  C   UNL     1       2.487  -0.029   0.538  1.00  0.00     0.157 A 
ATOM     12  O   UNL     1       2.933   0.732  -1.644  1.00  0.00    -0.504 OA
ATOM     13  O   UNL     1       3.854  -0.281   0.686  1.00  0.00    -0.504 OA
ENDBRANCH   1   6
TORSDOF 2

