
     RDKit          3D

 25 30  0  0  0  0  0  0  0  0999 V2000
    2.4789    1.9073    1.9051 O   0  0  0  0  0  0  0  0  0  0  0  0
    1.4386    2.0820    1.2006 C   0  0  0  0  0  0  0  0  0  0  0  0
    0.4127    3.0002    1.5408 N   0  0  0  0  0  0  0  0  0  0  0  0
   -0.8145    2.5568    0.9708 C   0  0  0  0  0  0  0  0  0  0  0  0
   -1.8351    3.2763    0.7674 O   0  0  0  0  0  0  0  0  0  0  0  0
   -0.4947    1.2885    0.3101 C   0  0  0  0  0  0  0  0  0  0  0  0
    0.8732    1.1062    0.2605 C   0  0  0  0  0  0  0  0  0  0  0  0
    1.3962    0.0043   -0.4055 C   0  0  0  0  0  0  0  0  0  0  0  0
    2.6420   -0.5831   -0.3239 C   0  0  0  0  0  0  0  0  0  0  0  0
    3.8807   -0.0235   -0.0649 C   0  0  0  0  0  0  0  0  0  0  0  0
    5.0027   -0.8402   -0.0979 C   0  0  0  0  0  0  0  0  0  0  0  0
    4.8589   -2.2107    0.0352 C   0  0  0  0  0  0  0  0  0  0  0  0
    3.5881   -2.7588   -0.0878 C   0  0  0  0  0  0  0  0  0  0  0  0
    2.5506   -1.9481   -0.5306 C   0  0  0  0  0  0  0  0  0  0  0  0
    1.2322   -2.1921   -0.7086 N   0  0  0  0  0  0  0  0  0  0  0  0
    0.5548   -1.0220   -0.8060 C   0  0  0  0  0  0  0  0  0  0  0  0
   -0.7884   -0.7292   -0.9082 C   0  0  0  0  0  0  0  0  0  0  0  0
   -1.8187   -1.4403   -1.4074 N   0  0  0  0  0  0  0  0  0  0  0  0
   -2.9859   -0.8456   -1.0631 C   0  0  0  0  0  0  0  0  0  0  0  0
   -4.3121   -1.2099   -1.1883 C   0  0  0  0  0  0  0  0  0  0  0  0
   -5.2317   -0.8411   -0.2182 C   0  0  0  0  0  0  0  0  0  0  0  0
   -4.8607    0.0227    0.8044 C   0  0  0  0  0  0  0  0  0  0  0  0
   -3.6963    0.7501    0.5932 C   0  0  0  0  0  0  0  0  0  0  0  0
   -2.7283    0.2734   -0.2820 C   0  0  0  0  0  0  0  0  0  0  0  0
   -1.3433    0.3769   -0.2956 C   0  0  0  0  0  0  0  0  0  0  0  0
  1  2  2  0
  2  3  1  0
  3  4  1  0
  4  5  2  0
  4  6  1  0
  6  7  2  0
  7  8  1  0
  8  9  1  0
  9 10  2  0
 10 11  1  0
 11 12  2  0
 12 13  1  0
 13 14  2  0
 14 15  1  0
 15 16  1  0
 16 17  1  0
 17 18  1  0
 18 19  1  0
 19 20  2  0
 20 21  1  0
 21 22  2  0
 22 23  1  0
 23 24  2  0
 24 25  1  0
  7  2  1  0
 16  8  2  0
 25 17  2  0
 25  6  1  0
 14  9  1  0
 24 19  1  0
M  END
>  <zinc_id>  (1) 
ZINC000012354940

>  <smiles>  (1) 
O=C1NC(=O)c2c1c1c3ccccc3[nH]c1c1[nH]c3ccccc3c21

$$$$
