
     RDKit          3D

 25 28  0  0  0  0  0  0  0  0999 V2000
    6.8831   -1.0896    0.6789 O   0  0  0  0  0  0  0  0  0  0  0  0
    5.6665   -0.5889    0.2161 C   0  0  0  0  0  0  0  0  0  0  0  0
    5.2995    0.7337    0.4325 C   0  0  0  0  0  0  0  0  0  0  0  0
    3.9914    1.1359    0.2000 C   0  0  0  0  0  0  0  0  0  0  0  0
    3.0915    0.1411   -0.1637 C   0  0  0  0  0  0  0  0  0  0  0  0
    1.6486    0.3254    0.0152 C   0  0  0  0  0  0  0  0  0  0  0  0
    0.8332   -0.5330    0.6739 N   0  0  0  0  0  0  0  0  0  0  0  0
   -0.4594   -0.2586    0.3755 C   0  0  0  0  0  0  0  0  0  0  0  0
   -1.6083   -1.1713    0.4225 C   0  0  0  0  0  0  0  0  0  0  0  0
   -2.6688   -0.9647    1.2962 C   0  0  0  0  0  0  0  0  0  0  0  0
   -3.7773   -1.7851    1.1269 C   0  0  0  0  0  0  0  0  0  0  0  0
   -3.6985   -2.9572    0.3878 C   0  0  0  0  0  0  0  0  0  0  0  0
   -4.8059   -3.6327   -0.0107 F   0  0  0  0  0  0  0  0  0  0  0  0
   -2.4136   -3.4183    0.1330 C   0  0  0  0  0  0  0  0  0  0  0  0
   -1.3935   -2.4932    0.0521 C   0  0  0  0  0  0  0  0  0  0  0  0
   -0.4522    0.8906   -0.4043 C   0  0  0  0  0  0  0  0  0  0  0  0
   -1.5406    1.8703   -0.4116 C   0  0  0  0  0  0  0  0  0  0  0  0
   -1.3145    3.2271   -0.2175 C   0  0  0  0  0  0  0  0  0  0  0  0
   -2.2893    4.1211   -0.6303 C   0  0  0  0  0  0  0  0  0  0  0  0
   -3.5608    3.7160   -0.8639 N   0  0  0  0  0  0  0  0  0  0  0  0
   -3.8191    2.4210   -0.5594 C   0  0  0  0  0  0  0  0  0  0  0  0
   -2.8018    1.5300   -0.8804 C   0  0  0  0  0  0  0  0  0  0  0  0
    0.8463    1.2072   -0.5946 N   0  0  0  0  0  0  0  0  0  0  0  0
    3.4936   -1.0814   -0.6590 C   0  0  0  0  0  0  0  0  0  0  0  0
    4.8501   -1.3453   -0.6151 C   0  0  0  0  0  0  0  0  0  0  0  0
  1  2  1  0
  2  3  2  0
  3  4  1  0
  4  5  2  0
  5  6  1  0
  6  7  2  0
  7  8  1  0
  8  9  1  0
  9 10  2  0
 10 11  1  0
 11 12  2  0
 12 13  1  0
 12 14  1  0
 14 15  2  0
  8 16  2  0
 16 17  1  0
 17 18  2  0
 18 19  1  0
 19 20  2  0
 20 21  1  0
 21 22  2  0
 16 23  1  0
  5 24  1  0
 24 25  2  0
 25  2  1  0
 23  6  1  0
 15  9  1  0
 22 17  1  0
M  END
>  <zinc_id>  (1) 
ZINC000089221712

>  <smiles>  (1) 
Oc1ccc(-c2nc(-c3ccc(F)cc3)c(-c3ccncc3)[nH]2)cc1

$$$$
