
     RDKit          3D

 19 20  0  0  0  0  0  0  0  0999 V2000
   -3.9817    2.3597    0.5189 C   0  0  0  0  0  0  0  0  0  0  0  0
   -3.3205    1.0678    0.1518 C   0  0  0  0  0  0  0  0  0  0  0  0
   -4.0427   -0.1118    0.0872 C   0  0  0  0  0  0  0  0  0  0  0  0
   -3.3403   -1.2973   -0.0915 C   0  0  0  0  0  0  0  0  0  0  0  0
   -2.0116   -1.2601   -0.4948 C   0  0  0  0  0  0  0  0  0  0  0  0
   -1.4634   -2.5762   -1.5280 Cl  0  0  0  0  0  0  0  0  0  0  0  0
   -1.2445   -0.1240   -0.2658 C   0  0  0  0  0  0  0  0  0  0  0  0
    0.0998   -0.0921   -0.7296 N   0  0  0  0  0  0  0  0  0  0  0  0
    1.1932   -0.6864   -0.0335 C   0  0  0  0  0  0  0  0  0  0  0  0
    1.4762   -2.0459   -0.1150 C   0  0  0  0  0  0  0  0  0  0  0  0
    2.7677   -2.5159   -0.3185 C   0  0  0  0  0  0  0  0  0  0  0  0
    3.7870   -1.7611    0.2372 C   0  0  0  0  0  0  0  0  0  0  0  0
    3.5086   -0.4663    0.6580 C   0  0  0  0  0  0  0  0  0  0  0  0
    2.2703    0.0967    0.3686 C   0  0  0  0  0  0  0  0  0  0  0  0
    2.3000    1.5490    0.1449 C   0  0  0  0  0  0  0  0  0  0  0  0
    2.8941    2.2602    1.0095 O   0  0  0  0  0  0  0  0  0  0  0  0
    2.3861    1.9401   -1.1948 O   0  0  0  0  0  0  0  0  0  0  0  0
   -1.9583    1.0624   -0.1266 C   0  0  0  0  0  0  0  0  0  0  0  0
   -1.3199    2.6012   -0.7037 Cl  0  0  0  0  0  0  0  0  0  0  0  0
  1  2  1  0
  2  3  2  0
  3  4  1  0
  4  5  2  0
  5  6  1  0
  5  7  1  0
  7  8  1  0
  8  9  1  0
  9 10  2  0
 10 11  1  0
 11 12  2  0
 12 13  1  0
 13 14  2  0
 14 15  1  0
 15 16  2  0
 15 17  1  0
  7 18  2  0
 18 19  1  0
 18  2  1  0
 14  9  1  0
M  END
>  <zinc_id>  (1) 
ZINC000000001655

>  <smiles>  (1) 
Cc1ccc(Cl)c(Nc2ccccc2C(=O)O)c1Cl

$$$$
