
     RDKit          3D

 27 31  0  0  0  0  0  0  0  0999 V2000
   -2.1624   -3.3679   -2.1295 O   0  0  0  0  0  0  0  0  0  0  0  0
   -1.9572   -2.2915   -1.4994 C   0  0  0  0  0  0  0  0  0  0  0  0
   -0.7304   -1.9831   -0.9252 C   0  0  0  0  0  0  0  0  0  0  0  0
   -0.5957   -0.7400   -0.3193 C   0  0  0  0  0  0  0  0  0  0  0  0
    0.5259   -0.4753    0.5950 C   0  0  0  0  0  0  0  0  0  0  0  0
    0.4207   -0.8046    1.9408 C   0  0  0  0  0  0  0  0  0  0  0  0
    1.2947   -0.2306    2.8549 C   0  0  0  0  0  0  0  0  0  0  0  0
    1.9985    0.8917    2.4581 C   0  0  0  0  0  0  0  0  0  0  0  0
    1.9933    1.3512    1.1471 C   0  0  0  0  0  0  0  0  0  0  0  0
    1.3561    0.5651    0.1940 C   0  0  0  0  0  0  0  0  0  0  0  0
    2.0208    0.4115   -1.4699 S   0  0  0  0  0  0  0  0  0  0  0  0
    3.8082    0.3940   -1.2814 C   0  0  0  0  0  0  0  0  0  0  0  0
    4.4689   -0.8102   -1.4587 C   0  0  0  0  0  0  0  0  0  0  0  0
    5.6169   -1.1260   -0.7461 C   0  0  0  0  0  0  0  0  0  0  0  0
    6.2467   -0.0976   -0.0639 C   0  0  0  0  0  0  0  0  0  0  0  0
    5.6212    1.1376    0.0358 C   0  0  0  0  0  0  0  0  0  0  0  0
    4.3576    1.3809   -0.4714 C   0  0  0  0  0  0  0  0  0  0  0  0
    3.2898    2.4312    0.5251 S   0  0  0  0  0  0  0  0  0  0  0  0
   -1.6931   -0.0442   -0.0701 O   0  0  0  0  0  0  0  0  0  0  0  0
   -2.8996   -0.5005   -0.2909 C   0  0  0  0  0  0  0  0  0  0  0  0
   -4.0546    0.1736    0.2258 N   0  0  0  0  0  0  0  0  0  0  0  0
   -4.4879   -0.2531    1.5538 C   0  0  0  0  0  0  0  0  0  0  0  0
   -5.6151    0.6115    2.0551 C   0  0  0  0  0  0  0  0  0  0  0  0
   -6.2400    1.2129    0.9633 O   0  0  0  0  0  0  0  0  0  0  0  0
   -5.4212    2.1730    0.3846 C   0  0  0  0  0  0  0  0  0  0  0  0
   -4.0665    1.6170   -0.0011 C   0  0  0  0  0  0  0  0  0  0  0  0
   -3.0956   -1.6266   -1.0629 C   0  0  0  0  0  0  0  0  0  0  0  0
  1  2  2  0
  2  3  1  0
  3  4  2  0
  4  5  1  0
  5  6  2  0
  6  7  1  0
  7  8  2  0
  8  9  1  0
  9 10  2  0
 10 11  1  0
 11 12  1  0
 12 13  2  0
 13 14  1  0
 14 15  2  0
 15 16  1  0
 16 17  2  0
 17 18  1  0
  4 19  1  0
 19 20  1  0
 20 21  1  0
 21 22  1  0
 22 23  1  0
 23 24  1  0
 24 25  1  0
 25 26  1  0
 20 27  2  0
 27  2  1  0
 10  5  1  0
 17 12  1  0
 26 21  1  0
 18  9  1  0
M  END
>  <zinc_id>  (1) 
ZINC000003817388

>  <smiles>  (1) 
O=c1cc(-c2cccc3c2Sc2ccccc2S3)oc(N2CCOCC2)c1

$$$$
