REMARK SMILES CCOC(=O)c1ncc2[nH]c3ccc(OCc4ccccc4)cc3c2c1COC
REMARK SMILES IDX 6 1 7 2 8 3 9 4 10 5 11 6 12 7 13 8 14 9 23 10 24 11 25 12
REMARK SMILES IDX 26 13 4 14 5 15 3 16 2 17 1 18 27 19 28 20 29 21 15 22 16 23
REMARK SMILES IDX 17 24 18 25 22 26 19 27 21 28 20 29
REMARK H PARENT
REMARK Flexibility Score: inf
ROOT
ATOM      1  C   UNL     1       3.672  -0.270  -0.481  1.00  0.00     0.154 A 
ATOM      2  N   UNL     1       4.205  -1.409  -0.983  1.00  0.00    -0.247 NA
ATOM      3  C   UNL     1       3.439  -2.345  -1.591  1.00  0.00     0.052 A 
ATOM      4  C   UNL     1       2.132  -2.431  -1.157  1.00  0.00     0.066 A 
ATOM      5  N   UNL     1       1.214  -3.428  -1.173  1.00  0.00    -0.353 N 
ATOM      6  C   UNL     1       0.051  -2.971  -0.673  1.00  0.00     0.047 A 
ATOM      7  C   UNL     1      -1.050  -3.597  -0.106  1.00  0.00    -0.034 A 
ATOM      8  C   UNL     1      -2.137  -2.829   0.287  1.00  0.00    -0.018 A 
ATOM      9  C   UNL     1      -2.062  -1.460   0.093  1.00  0.00     0.120 A 
ATOM     10  C   UNL     1      -0.921  -0.840  -0.395  1.00  0.00    -0.010 A 
ATOM     11  C   UNL     1       0.203  -1.594  -0.570  1.00  0.00     0.011 A 
ATOM     12  C   UNL     1       1.557  -1.310  -0.572  1.00  0.00     0.017 A 
ATOM     13  C   UNL     1       2.302  -0.175  -0.272  1.00  0.00     0.021 A 
ENDROOT
BRANCH   1  14
ATOM     14  C   UNL     1       4.476   0.947  -0.552  1.00  0.00     0.357 C 
ATOM     15  O   UNL     1       5.734   0.850  -0.664  1.00  0.00    -0.244 OA
BRANCH  14  16
ATOM     16  O   UNL     1       3.982   2.210  -0.304  1.00  0.00    -0.461 OA
BRANCH  16  17
ATOM     17  C   UNL     1       4.819   3.134   0.381  1.00  0.00     0.089 C 
ATOM     18  C   UNL     1       4.361   4.561   0.197  1.00  0.00    -0.031 C 
ENDBRANCH  16  17
ENDBRANCH  14  16
ENDBRANCH   1  14
BRANCH  13  19
ATOM     19  C   UNL     1       1.590   1.112  -0.204  1.00  0.00     0.074 C 
BRANCH  19  20
ATOM     20  O   UNL     1       1.494   1.617   1.091  1.00  0.00    -0.380 OA
ATOM     21  C   UNL     1       1.709   0.632   2.060  1.00  0.00     0.036 C 
ENDBRANCH  19  20
ENDBRANCH  13  19
BRANCH   9  22
ATOM     22  O   UNL     1      -3.281  -0.777   0.115  1.00  0.00    -0.489 OA
BRANCH  22  23
ATOM     23  C   UNL     1      -3.873  -0.330  -1.092  1.00  0.00     0.113 C 
BRANCH  23  24
ATOM     24  C   UNL     1      -4.728   0.869  -0.850  1.00  0.00    -0.011 A 
ATOM     25  C   UNL     1      -4.290   1.780   0.102  1.00  0.00    -0.056 A 
ATOM     26  C   UNL     1      -5.907   1.079  -1.532  1.00  0.00    -0.056 A 
ATOM     27  C   UNL     1      -5.238   2.653   0.615  1.00  0.00    -0.062 A 
ATOM     28  C   UNL     1      -6.866   1.835  -0.869  1.00  0.00    -0.062 A 
ATOM     29  C   UNL     1      -6.585   2.487   0.320  1.00  0.00    -0.062 A 
ENDBRANCH  23  24
ENDBRANCH  22  23
ENDBRANCH   9  22
TORSDOF 8

