
     RDKit          3D

 10  9  0  0  0  0  0  0  0  0999 V2000
    3.3499    1.0527   -0.2911 N   0  0  0  0  0  0  0  0  0  0  0  0
    2.3402    0.0747   -0.0935 C   0  0  0  0  0  0  0  0  0  0  0  0
    2.6512   -1.1491   -0.0733 O   0  0  0  0  0  0  0  0  0  0  0  0
    0.9462    0.3922   -0.4665 C   0  0  0  0  0  0  0  0  0  0  0  0
    0.0007   -0.6956    0.0249 C   0  0  0  0  0  0  0  0  0  0  0  0
   -1.0216    0.1064    1.0374 C   0  0  2  0  0  0  0  0  0  0  0  0
   -1.7549   -1.2262    1.4609 N   0  0  0  0  0  0  0  0  0  0  0  0
   -2.0760    0.4173   -0.1436 C   0  0  0  0  0  0  0  0  0  0  0  0
   -1.9832    1.6313   -0.4945 O   0  0  0  0  0  0  0  0  0  0  0  0
   -2.4524   -0.6037   -0.9607 O   0  0  0  0  0  0  0  0  0  0  0  0
  1  2  1  0
  2  3  2  0
  2  4  1  0
  4  5  1  0
  6  5  1  6
  6  7  1  0
  6  8  1  0
  8  9  2  0
  8 10  1  0
M  END
>  <zinc_id>  (1) 
ZINC000001532526

>  <smiles>  (1) 
NC(=O)CC[C@H](N)C(=O)O

$$$$
