
     RDKit          3D

 36 40  0  0  0  0  0  0  0  0999 V2000
    8.8186   -1.3331   -0.1081 N   0  0  0  0  0  0  0  0  0  0  0  0
    8.1131   -0.5117    0.3366 C   0  0  0  0  0  0  0  0  0  0  0  0
    8.5753    0.6631    0.4539 O   0  0  0  0  0  0  0  0  0  0  0  0
    6.7188   -0.5908    0.0172 N   0  0  0  0  0  0  0  0  0  0  0  0
    5.7766   -0.1859    1.0507 C   0  0  0  0  0  0  0  0  0  0  0  0
    4.3648   -0.1818    0.5388 C   0  0  0  0  0  0  0  0  0  0  0  0
    4.2019    0.4364   -0.8149 C   0  0  0  0  0  0  0  0  0  0  0  0
    3.3276    1.6671   -0.8072 C   0  0  0  0  0  0  0  0  0  0  0  0
    2.4444    1.5788    0.3714 C   0  0  0  0  0  0  0  0  0  0  0  0
    2.7489    2.1890    1.4407 O   0  0  0  0  0  0  0  0  0  0  0  0
    1.3217    0.6923    0.3301 N   0  0  0  0  0  0  0  0  0  0  0  0
    1.2341   -0.3669   -0.6417 C   0  0  0  0  0  0  0  0  0  0  0  0
   -0.1083   -0.5121   -1.2743 C   0  0  0  0  0  0  0  0  0  0  0  0
   -1.1348   -0.5487   -0.2137 C   0  0  0  0  0  0  0  0  0  0  0  0
   -2.5903   -0.1873   -0.9367 C   0  0  1  0  0  0  0  0  0  0  0  0
   -3.3001   -1.4898   -0.2335 C   0  0  0  0  0  0  0  0  0  0  0  0
   -2.5063   -2.5392   -0.5757 N   0  0  0  0  0  0  0  0  0  0  0  0
   -2.9590   -3.7557   -0.1854 C   0  0  0  0  0  0  0  0  0  0  0  0
   -4.3181   -3.9962   -0.2489 C   0  0  0  0  0  0  0  0  0  0  0  0
   -4.9181   -5.7915   -0.3242 Br  0  0  0  0  0  0  0  0  0  0  0  0
   -5.1510   -2.9463   -0.6098 C   0  0  0  0  0  0  0  0  0  0  0  0
   -4.6127   -1.6664   -0.6764 C   0  0  0  0  0  0  0  0  0  0  0  0
   -5.6963   -0.6397   -0.5467 C   0  0  0  0  0  0  0  0  0  0  0  0
   -5.4346   -0.0098    0.8171 C   0  0  0  0  0  0  0  0  0  0  0  0
   -4.2813    0.9039    0.8050 C   0  0  0  0  0  0  0  0  0  0  0  0
   -4.4460    1.9250    1.7381 C   0  0  0  0  0  0  0  0  0  0  0  0
   -3.6250    3.0405    1.7159 C   0  0  0  0  0  0  0  0  0  0  0  0
   -3.5692    4.2132    3.0168 Cl  0  0  0  0  0  0  0  0  0  0  0  0
   -2.8443    3.1924    0.5767 C   0  0  0  0  0  0  0  0  0  0  0  0
   -2.5149    2.0742   -0.1810 C   0  0  0  0  0  0  0  0  0  0  0  0
   -1.7803    2.3443   -1.9317 Br  0  0  0  0  0  0  0  0  0  0  0  0
   -3.0556    0.8577    0.2282 C   0  0  0  0  0  0  0  0  0  0  0  0
   -0.9623    0.1468    1.0134 C   0  0  0  0  0  0  0  0  0  0  0  0
    0.2658    0.9406    1.2783 C   0  0  0  0  0  0  0  0  0  0  0  0
    5.5004    0.8073   -1.4740 C   0  0  0  0  0  0  0  0  0  0  0  0
    6.3965   -0.4199   -1.3974 C   0  0  0  0  0  0  0  0  0  0  0  0
  1  2  1  0
  2  3  2  0
  2  4  1  0
  4  5  1  0
  5  6  1  0
  6  7  1  0
  7  8  1  0
  8  9  1  0
  9 10  2  0
  9 11  1  0
 11 12  1  0
 12 13  1  0
 13 14  1  0
 15 14  1  1
 15 16  1  0
 16 17  2  0
 17 18  1  0
 18 19  2  0
 19 20  1  0
 19 21  1  0
 21 22  2  0
 22 23  1  0
 23 24  1  0
 24 25  1  0
 25 26  2  0
 26 27  1  0
 27 28  1  0
 27 29  2  0
 29 30  1  0
 30 31  1  0
 30 32  2  0
 14 33  1  0
 33 34  1  0
  7 35  1  0
 35 36  1  0
 36  4  1  0
 34 11  1  0
 32 15  1  0
 22 16  1  0
 32 25  1  0
M  END
>  <zinc_id>  (1) 
ZINC000003950115

>  <smiles>  (1) 
NC(=O)N1CCC(CC(=O)N2CCC([C@H]3c4ncc(Br)cc4CCc4cc(Cl)cc(Br)c43)CC2)CC1

$$$$
