
     RDKit          3D

 26 30  0  0  0  0  0  0  0  0999 V2000
   -5.3312    3.6829    0.4291 C   0  0  0  0  0  0  0  0  0  0  0  0
   -4.7694    2.4983   -0.1797 N   0  0  0  0  0  0  0  0  0  0  0  0
   -3.7419    1.7304    0.2374 C   0  0  0  0  0  0  0  0  0  0  0  0
   -3.9632    0.4620   -0.2468 C   0  0  0  0  0  0  0  0  0  0  0  0
   -3.2780   -0.7570    0.1592 C   0  0  0  0  0  0  0  0  0  0  0  0
   -3.8802   -1.9686   -0.1461 C   0  0  0  0  0  0  0  0  0  0  0  0
   -3.1022   -3.1202   -0.1500 C   0  0  0  0  0  0  0  0  0  0  0  0
   -1.8198   -2.9912    0.3149 C   0  0  0  0  0  0  0  0  0  0  0  0
   -0.8234   -3.9033    0.3210 N   0  0  0  0  0  0  0  0  0  0  0  0
    0.2818   -3.3334    0.7692 N   0  0  0  0  0  0  0  0  0  0  0  0
    0.0389   -2.0033    0.6877 C   0  0  0  0  0  0  0  0  0  0  0  0
    1.2125   -0.7695    1.1914 S   0  0  0  0  0  0  0  0  0  0  0  0
    2.2235   -0.2082   -0.1844 C   0  0  0  0  0  0  0  0  0  0  0  0
    1.8426    0.9390   -0.8694 C   0  0  0  0  0  0  0  0  0  0  0  0
    2.8010    1.7858   -1.4141 C   0  0  0  0  0  0  0  0  0  0  0  0
    4.1488    1.6332   -1.1063 C   0  0  0  0  0  0  0  0  0  0  0  0
    4.9380    2.6984   -0.8215 N   0  0  0  0  0  0  0  0  0  0  0  0
    6.1485    2.4958   -0.2470 C   0  0  0  0  0  0  0  0  0  0  0  0
    6.7387    1.2466   -0.3846 C   0  0  0  0  0  0  0  0  0  0  0  0
    5.8724    0.1731   -0.4575 C   0  0  0  0  0  0  0  0  0  0  0  0
    4.5234    0.3441   -0.7446 C   0  0  0  0  0  0  0  0  0  0  0  0
    3.5598   -0.5556   -0.3051 C   0  0  0  0  0  0  0  0  0  0  0  0
   -1.3022   -1.8223    0.7619 N   0  0  0  0  0  0  0  0  0  0  0  0
   -2.0382   -0.7179    0.6996 N   0  0  0  0  0  0  0  0  0  0  0  0
   -4.8972    0.6078   -1.2589 C   0  0  0  0  0  0  0  0  0  0  0  0
   -5.3832    1.8528   -1.1710 N   0  0  0  0  0  0  0  0  0  0  0  0
  1  2  1  0
  2  3  1  0
  3  4  2  0
  4  5  1  0
  5  6  1  0
  6  7  2  0
  7  8  1  0
  8  9  2  0
  9 10  1  0
 10 11  2  0
 11 12  1  0
 12 13  1  0
 13 14  2  0
 14 15  1  0
 15 16  2  0
 16 17  1  0
 17 18  2  0
 18 19  1  0
 19 20  2  0
 20 21  1  0
 21 22  2  0
 11 23  1  0
 23 24  1  0
  4 25  1  0
 25 26  2  0
 26  2  1  0
 24  5  2  0
 23  8  1  0
 22 13  1  0
 21 16  1  0
M  END
>  <zinc_id>  (1) 
ZINC000039129916

>  <smiles>  (1) 
Cn1cc(-c2ccc3nnc(Sc4ccc5ncccc5c4)n3n2)cn1

$$$$
