
     RDKit          3D

 39 43  0  0  0  0  0  0  0  0999 V2000
   -1.0181   -4.2687   -0.9416 C   0  0  0  0  0  0  0  0  0  0  0  0
    0.0879   -3.3916   -0.5003 C   0  0  0  0  0  0  0  0  0  0  0  0
    1.4215   -3.7720   -0.5408 C   0  0  0  0  0  0  0  0  0  0  0  0
    2.4493   -2.8796   -0.2606 C   0  0  0  0  0  0  0  0  0  0  0  0
    2.1364   -1.5570    0.0307 C   0  0  0  0  0  0  0  0  0  0  0  0
    2.9289   -0.4741   -0.4752 N   0  0  0  0  0  0  0  0  0  0  0  0
    3.8789    0.0727    0.4243 C   0  0  0  0  0  0  0  0  0  0  0  0
    4.6870   -0.7463    0.9459 O   0  0  0  0  0  0  0  0  0  0  0  0
    4.2061    1.4487    0.5028 N   0  0  0  0  0  0  0  0  0  0  0  0
    5.5660    1.8993    0.4701 C   0  0  0  0  0  0  0  0  0  0  0  0
    6.5810    1.1219    1.0070 C   0  0  0  0  0  0  0  0  0  0  0  0
    7.8812    1.2012    0.5650 C   0  0  0  0  0  0  0  0  0  0  0  0
    8.8053    0.0347    0.7244 C   0  0  0  0  0  0  0  0  0  0  0  0
   10.1224    0.4176    0.7385 F   0  0  0  0  0  0  0  0  0  0  0  0
    8.5073   -0.8425   -0.2895 F   0  0  0  0  0  0  0  0  0  0  0  0
    8.4253   -0.5787    1.9125 F   0  0  0  0  0  0  0  0  0  0  0  0
    8.1959    2.0853   -0.4570 C   0  0  0  0  0  0  0  0  0  0  0  0
    7.2157    2.9322   -0.9422 C   0  0  0  0  0  0  0  0  0  0  0  0
    5.9037    2.6976   -0.6154 C   0  0  0  0  0  0  0  0  0  0  0  0
    4.9441    3.2698   -1.3870 F   0  0  0  0  0  0  0  0  0  0  0  0
    0.8365   -1.3552    0.4808 C   0  0  0  0  0  0  0  0  0  0  0  0
   -0.2173   -2.1529    0.0503 C   0  0  0  0  0  0  0  0  0  0  0  0
   -1.5688   -1.8402    0.3333 N   0  0  0  0  0  0  0  0  0  0  0  0
   -2.3429   -0.9334   -0.4638 C   0  0  0  0  0  0  0  0  0  0  0  0
   -2.4817    0.3996   -0.0939 C   0  0  0  0  0  0  0  0  0  0  0  0
   -3.6922    1.0548   -0.2845 C   0  0  0  0  0  0  0  0  0  0  0  0
   -4.7933    0.3980   -0.8053 C   0  0  0  0  0  0  0  0  0  0  0  0
   -4.5476   -0.8019   -1.4596 C   0  0  0  0  0  0  0  0  0  0  0  0
   -3.2891   -1.3855   -1.3762 C   0  0  0  0  0  0  0  0  0  0  0  0
   -5.8014   -1.1983   -2.0212 N   0  0  0  0  0  0  0  0  0  0  0  0
   -6.8406   -0.5617   -1.3054 C   0  0  0  0  0  0  0  0  0  0  0  0
   -8.0472   -0.8797   -1.1484 O   0  0  0  0  0  0  0  0  0  0  0  0
   -6.2402    0.6183   -0.7009 C   0  0  0  0  0  0  0  0  0  0  0  0
   -6.8319    1.4146    0.1675 C   0  0  0  0  0  0  0  0  0  0  0  0
   -8.2796    1.4942    0.1696 C   0  0  0  0  0  0  0  0  0  0  0  0
   -9.0587    2.2851   -0.6308 C   0  0  0  0  0  0  0  0  0  0  0  0
  -10.3511    2.2123   -0.1607 C   0  0  0  0  0  0  0  0  0  0  0  0
  -10.3132    1.5292    1.0332 C   0  0  0  0  0  0  0  0  0  0  0  0
   -9.0658    1.0322    1.1687 N   0  0  0  0  0  0  0  0  0  0  0  0
  1  2  1  0
  2  3  2  0
  3  4  1  0
  4  5  2  0
  5  6  1  0
  6  7  1  0
  7  8  2  0
  7  9  1  0
  9 10  1  0
 10 11  2  0
 11 12  1  0
 12 13  1  0
 13 14  1  0
 13 15  1  0
 13 16  1  0
 12 17  2  0
 17 18  1  0
 18 19  2  0
 19 20  1  0
  5 21  1  0
 21 22  2  0
 22 23  1  0
 23 24  1  0
 24 25  2  0
 25 26  1  0
 26 27  2  0
 27 28  1  0
 28 29  2  0
 28 30  1  0
 30 31  1  0
 31 32  2  0
 31 33  1  0
 33 34  2  0
 34 35  1  0
 35 36  2  0
 36 37  1  0
 37 38  2  0
 38 39  1  0
 22  2  1  0
 29 24  1  0
 39 35  1  0
 19 10  1  0
 33 27  1  0
M  END
>  <zinc_id>  (1) 
ZINC000084706784

>  <smiles>  (1) 
Cc1ccc(NC(=O)Nc2cc(C(F)(F)F)ccc2F)cc1Nc1ccc2c(c1)NC(=O)/C2=C\c1ccc[nH]1

$$$$
