
     RDKit          3D

 24 26  0  0  0  0  0  0  0  0999 V2000
    2.9571    1.9901    1.1145 C   0  0  0  0  0  0  0  0  0  0  0  0
    2.9664    1.1627   -0.3068 C   0  0  2  0  0  0  0  0  0  0  0  0
    2.3280   -0.1103    0.3739 N   0  0  0  0  0  0  0  0  0  0  0  0
    0.9683   -0.3468   -0.0149 C   0  0  0  0  0  0  0  0  0  0  0  0
    0.3574    0.6659   -0.4448 O   0  0  0  0  0  0  0  0  0  0  0  0
    0.3883   -1.6898   -0.1869 C   0  0  0  0  0  0  0  0  0  0  0  0
   -0.6727   -1.7743   -1.2390 C   0  0  0  0  0  0  0  0  0  0  0  0
   -2.0036   -1.2972   -0.7763 C   0  0  0  0  0  0  0  0  0  0  0  0
   -2.4274   -0.0247   -0.9893 N   0  0  0  0  0  0  0  0  0  0  0  0
   -3.3050    0.4472   -0.0712 C   0  0  0  0  0  0  0  0  0  0  0  0
   -3.2977    1.7197    0.4322 C   0  0  0  0  0  0  0  0  0  0  0  0
   -4.5291    2.3288    0.6451 C   0  0  0  0  0  0  0  0  0  0  0  0
   -5.7134    1.6209    0.4882 C   0  0  0  0  0  0  0  0  0  0  0  0
   -5.6259    0.2393    0.3617 C   0  0  0  0  0  0  0  0  0  0  0  0
   -4.3766   -0.3650    0.2804 C   0  0  0  0  0  0  0  0  0  0  0  0
   -4.2208   -1.7019   -0.0667 C   0  0  0  0  0  0  0  0  0  0  0  0
   -5.1913   -2.4711    0.1214 O   0  0  0  0  0  0  0  0  0  0  0  0
   -3.0052   -2.1571   -0.4621 N   0  0  0  0  0  0  0  0  0  0  0  0
    4.4682    0.6292   -0.0549 C   0  0  0  0  0  0  0  0  0  0  0  0
    5.4020    1.6096   -0.3735 C   0  0  0  0  0  0  0  0  0  0  0  0
    6.7316    1.2289   -0.2333 C   0  0  0  0  0  0  0  0  0  0  0  0
    7.0439   -0.1242   -0.2652 C   0  0  0  0  0  0  0  0  0  0  0  0
    6.0448   -0.9846   -0.7016 C   0  0  0  0  0  0  0  0  0  0  0  0
    4.7126   -0.5953   -0.6675 C   0  0  0  0  0  0  0  0  0  0  0  0
  2  1  1  1
  2  3  1  0
  3  4  1  0
  4  5  2  0
  4  6  1  0
  6  7  1  0
  7  8  1  0
  8  9  2  0
  9 10  1  0
 10 11  2  0
 11 12  1  0
 12 13  2  0
 13 14  1  0
 14 15  2  0
 15 16  1  0
 16 17  2  0
 16 18  1  0
  2 19  1  0
 19 20  2  0
 20 21  1  0
 21 22  2  0
 22 23  1  0
 23 24  2  0
 18  8  1  0
 24 19  1  0
 15 10  1  0
M  END
>  <zinc_id>  (1) 
ZINC000017322922

>  <smiles>  (1) 
C[C@H](NC(=O)CCc1nc2ccccc2c(=O)[nH]1)c1ccccc1

$$$$
