
     RDKit          3D

 17 18  0  0  0  0  0  0  0  0999 V2000
   -5.8121   -0.9777    0.7762 O   0  0  0  0  0  0  0  0  0  0  0  0
   -4.8574   -0.1780    0.5357 C   0  0  0  0  0  0  0  0  0  0  0  0
   -4.8825    0.9990    1.2889 O   0  0  0  0  0  0  0  0  0  0  0  0
   -3.5954   -0.8179    0.1431 C   0  0  0  0  0  0  0  0  0  0  0  0
   -2.7827   -0.3213   -0.7623 C   0  0  0  0  0  0  0  0  0  0  0  0
   -1.3299   -0.2230   -0.5746 C   0  0  0  0  0  0  0  0  0  0  0  0
   -0.7968    1.0494   -0.7441 C   0  0  0  0  0  0  0  0  0  0  0  0
    0.4074    1.4181   -0.1961 C   0  0  0  0  0  0  0  0  0  0  0  0
    0.9862    0.6365    0.7815 C   0  0  0  0  0  0  0  0  0  0  0  0
    2.4108    0.9533    1.1089 C   0  0  0  0  0  0  0  0  0  0  0  0
    3.2820    0.2424    0.1797 N   0  0  0  0  0  0  0  0  0  0  0  0
    4.0660   -0.7849    0.5839 C   0  0  0  0  0  0  0  0  0  0  0  0
    4.8493   -1.0747   -0.5253 C   0  0  0  0  0  0  0  0  0  0  0  0
    4.8093    0.0372   -1.3000 N   0  0  0  0  0  0  0  0  0  0  0  0
    3.5840    0.5737   -1.0999 C   0  0  0  0  0  0  0  0  0  0  0  0
    0.4146   -0.5734    1.0768 C   0  0  0  0  0  0  0  0  0  0  0  0
   -0.7530   -0.9588    0.4535 C   0  0  0  0  0  0  0  0  0  0  0  0
  1  2  2  0
  2  3  1  0
  2  4  1  0
  4  5  2  0
  5  6  1  0
  6  7  2  0
  7  8  1  0
  8  9  2  0
  9 10  1  0
 10 11  1  0
 11 12  1  0
 12 13  2  0
 13 14  1  0
 14 15  2  0
  9 16  1  0
 16 17  2  0
 17  6  1  0
 15 11  1  0
M  END
>  <zinc_id>  (1) 
ZINC000000005389

>  <smiles>  (1) 
O=C(O)/C=C/c1ccc(Cn2ccnc2)cc1

$$$$
