REMARK SMILES CCOC(=O)C(C)=O
REMARK SMILES IDX 4 1 5 2 3 3 2 4 1 5 6 6 7 7 8 8
REMARK H PARENT
REMARK Flexibility Score: inf
ROOT
ATOM      1  C   UNL     1      -0.148  -0.463  -0.309  1.00  0.00     0.374 C 
ATOM      2  O   UNL     1      -0.115  -1.551   0.333  1.00  0.00    -0.243 OA
ENDROOT
BRANCH   1   3
ATOM      3  O   UNL     1       0.974  -0.159  -1.066  1.00  0.00    -0.460 OA
BRANCH   3   4
ATOM      4  C   UNL     1       2.227  -0.220  -0.386  1.00  0.00     0.089 C 
ATOM      5  C   UNL     1       2.615   1.225  -0.098  1.00  0.00    -0.031 C 
ENDBRANCH   3   4
ENDBRANCH   1   3
BRANCH   1   6
ATOM      6  C   UNL     1      -1.430   0.227  -0.499  1.00  0.00     0.236 C 
ATOM      7  C   UNL     1      -2.494  -0.353  -1.364  1.00  0.00     0.006 C 
ATOM      8  O   UNL     1      -1.629   1.294   0.149  1.00  0.00    -0.287 OA
ENDBRANCH   1   6
TORSDOF 3

