REMARK SMILES Cc1cccc(-c2nc(C(C)(C)C)[nH]c2-c2ccc3c(c2)OCO3)n1
REMARK SMILES IDX 7 1 8 2 9 3 14 4 15 5 6 6 1 7 2 8 3 9 25 10 4 11 5 12 16 13
REMARK SMILES IDX 17 14 21 15 18 16 20 17 19 18 22 19 24 20 23 21 10 22 11 23
REMARK SMILES IDX 12 24 13 25
REMARK H PARENT
REMARK Flexibility Score: inf
ROOT
ATOM      1  C   UNL     1      -1.309   0.152  -0.415  1.00  0.00     0.115 A 
ATOM      2  N   UNL     1      -2.403  -0.535  -0.824  1.00  0.00    -0.231 NA
ATOM      3  C   UNL     1      -2.248  -1.772  -0.303  1.00  0.00     0.112 A 
ATOM      4  N   UNL     1      -0.911  -1.992  -0.315  1.00  0.00    -0.341 N 
ATOM      5  C   UNL     1      -0.293  -0.794  -0.415  1.00  0.00     0.075 A 
ENDROOT
BRANCH   1   6
ATOM      6  C   UNL     1      -1.116   1.606  -0.425  1.00  0.00     0.091 A 
ATOM      7  C   UNL     1      -2.740   4.692   0.809  1.00  0.00    -0.022 C 
ATOM      8  C   UNL     1      -1.839   3.800   0.017  1.00  0.00     0.038 A 
ATOM      9  C   UNL     1      -0.637   4.311  -0.455  1.00  0.00    -0.041 A 
ATOM     10  N   UNL     1      -2.044   2.461   0.034  1.00  0.00    -0.251 NA
ATOM     11  C   UNL     1       0.421   3.422  -0.607  1.00  0.00    -0.058 A 
ATOM     12  C   UNL     1       0.092   2.116  -0.879  1.00  0.00    -0.034 A 
ENDBRANCH   1   6
BRANCH   5  13
ATOM     13  C   UNL     1       1.085  -0.446  -0.059  1.00  0.00     0.004 A 
ATOM     14  C   UNL     1       1.303  -0.157   1.282  1.00  0.00    -0.049 A 
ATOM     15  C   UNL     1       2.123  -0.930  -0.818  1.00  0.00    -0.006 A 
ATOM     16  C   UNL     1       2.566   0.186   1.715  1.00  0.00    -0.015 A 
ATOM     17  C   UNL     1       3.400  -0.869  -0.279  1.00  0.00     0.166 A 
ATOM     18  C   UNL     1       3.623  -0.234   0.925  1.00  0.00     0.165 A 
ATOM     19  O   UNL     1       4.644  -1.228  -0.757  1.00  0.00    -0.454 OA
ATOM     20  O   UNL     1       4.969  -0.394   1.242  1.00  0.00    -0.454 OA
ATOM     21  C   UNL     1       5.553  -1.318   0.334  1.00  0.00     0.231 C 
ENDBRANCH   5  13
BRANCH   3  22
ATOM     22  C   UNL     1      -3.290  -2.765   0.076  1.00  0.00     0.020 C 
ATOM     23  C   UNL     1      -2.744  -3.680   1.150  1.00  0.00    -0.053 C 
ATOM     24  C   UNL     1      -3.663  -3.538  -1.178  1.00  0.00    -0.053 C 
ATOM     25  C   UNL     1      -4.542  -2.092   0.581  1.00  0.00    -0.053 C 
ENDBRANCH   3  22
TORSDOF 3

