REMARK SMILES Cc1nn(C)c2nc(NNC(=O)Nc3cc(Cl)nc(Cl)c3)cc(C(C)C)c12
REMARK SMILES IDX 9 1 8 2 1 3 2 4 3 5 27 6 4 7 6 8 23 9 5 10 7 11 22 12 24 13
REMARK SMILES IDX 25 14 26 15 10 16 11 17 12 18 13 19 14 20 15 21 21 22 16 23
REMARK SMILES IDX 19 24 17 25 18 26 20 27
REMARK H PARENT
REMARK Flexibility Score: inf
ROOT
ATOM      1  N   UNL     1      -0.314   1.545  -1.083  1.00  0.00    -0.280 N 
ENDROOT
BRANCH   1   2
ATOM      2  C   UNL     1      -1.565   0.852  -1.033  1.00  0.00     0.147 A 
ATOM      3  C   UNL     1      -6.179  -0.211   1.161  1.00  0.00    -0.020 C 
ATOM      4  C   UNL     1      -4.796  -0.685   0.946  1.00  0.00     0.069 A 
ATOM      5  N   UNL     1      -4.210  -1.789   1.414  1.00  0.00    -0.176 NA
ATOM      6  C   UNL     1      -3.931  -0.168  -0.010  1.00  0.00     0.046 A 
ATOM      7  N   UNL     1      -2.982  -1.880   0.928  1.00  0.00    -0.250 N 
ATOM      8  C   UNL     1      -2.730  -0.851   0.117  1.00  0.00     0.160 A 
ATOM      9  C   UNL     1      -3.937   1.067  -0.650  1.00  0.00    -0.029 A 
ATOM     10  C   UNL     1      -2.049  -2.905   1.319  1.00  0.00     0.032 C 
ATOM     11  N   UNL     1      -1.607  -0.378  -0.466  1.00  0.00    -0.210 NA
ATOM     12  C   UNL     1      -2.770   1.460  -1.290  1.00  0.00    -0.014 A 
BRANCH   9  13
ATOM     13  C   UNL     1      -5.048   2.016  -0.357  1.00  0.00    -0.021 C 
ATOM     14  C   UNL     1      -4.611   2.851   0.841  1.00  0.00    -0.059 C 
ATOM     15  C   UNL     1      -5.120   2.974  -1.536  1.00  0.00    -0.059 C 
ENDBRANCH   9  13
ENDBRANCH   1   2
BRANCH   1  16
ATOM     16  N   UNL     1       0.828   0.803  -1.384  1.00  0.00    -0.250 N 
ATOM     17  C   UNL     1       1.655   0.416  -0.281  1.00  0.00     0.337 C 
ATOM     18  O   UNL     1       1.274   0.435   0.909  1.00  0.00    -0.247 OA
ATOM     19  N   UNL     1       2.712  -0.495  -0.592  1.00  0.00    -0.306 N 
BRANCH  19  20
ATOM     20  C   UNL     1       3.852  -0.537   0.274  1.00  0.00     0.049 A 
ATOM     21  C   UNL     1       4.628   0.604   0.436  1.00  0.00    -0.001 A 
ATOM     22  C   UNL     1       4.530  -1.743   0.397  1.00  0.00    -0.001 A 
ATOM     23  C   UNL     1       6.012   0.520   0.507  1.00  0.00     0.132 A 
ATOM     24  C   UNL     1       5.899  -1.821   0.542  1.00  0.00     0.132 A 
ATOM     25  Cl  UNL     1       7.046   1.931   0.455  1.00  0.00    -0.062 Cl
ATOM     26  N   UNL     1       6.632  -0.682   0.538  1.00  0.00    -0.224 NA
ATOM     27  Cl  UNL     1       6.780  -3.329   0.317  1.00  0.00    -0.062 Cl
ENDBRANCH  19  20
ENDBRANCH   1  16
TORSDOF 4

