REMARK SMILES CC(C)(N)C(=O)N[C@H](COCc1ccccc1)C(=O)N1CCC2(CC1)CN(S(C)(=O)=O)c1ccccc12
REMARK SMILES IDX 9 1 8 2 7 3 5 4 6 5 2 6 1 7 3 8 4 9 18 10 19 11 20 12 21 13
REMARK SMILES IDX 25 14 22 15 24 16 23 17 26 18 37 19 27 20 32 21 36 22 33 23
REMARK SMILES IDX 35 24 34 25 28 26 29 27 30 28 31 29 10 30 11 31 12 32 13 33
REMARK SMILES IDX 17 34 14 35 16 36 15 37
REMARK H PARENT
REMARK Flexibility Score: inf
ROOT
ATOM      1  C   UNL     1       2.253   0.310   0.694  1.00  0.00     0.076 C 
ENDROOT
BRANCH   1   2
ATOM      2  C   UNL     1       2.577  -0.583  -0.652  1.00  0.00     0.131 C 
BRANCH   2   3
ATOM      3  N   UNL     1       2.093  -1.924   0.033  1.00  0.00    -0.341 N 
ATOM      4  C   UNL     1       2.571  -3.114  -0.617  1.00  0.00     0.240 C 
ATOM      5  O   UNL     1       2.348  -3.142  -1.865  1.00  0.00    -0.273 OA
BRANCH   4   6
ATOM      6  C   UNL     1       3.369  -4.155   0.068  1.00  0.00     0.090 C 
ATOM      7  C   UNL     1       3.527  -4.001   0.349  1.00  0.00    -0.038 C 
ATOM      8  C   UNL     1       2.549  -5.184   0.764  1.00  0.00    -0.038 C 
ATOM      9  N   UNL     1       4.262  -4.721  -0.922  1.00  0.00    -0.318 NA
ENDBRANCH   4   6
ENDBRANCH   2   3
BRANCH   2  10
ATOM     10  C   UNL     1       1.155  -0.226  -1.329  1.00  0.00     0.247 C 
ATOM     11  O   UNL     1       1.166   1.005  -1.630  1.00  0.00    -0.272 OA
ATOM     12  N   UNL     1      -0.005  -0.746  -0.769  1.00  0.00    -0.341 N 
ATOM     13  C   UNL     1      -0.963  -1.396  -1.660  1.00  0.00     0.021 C 
ATOM     14  C   UNL     1      -0.593  -0.253   0.472  1.00  0.00     0.021 C 
ATOM     15  C   UNL     1      -2.077  -0.430  -2.030  1.00  0.00    -0.024 C 
ATOM     16  C   UNL     1      -1.579   0.836   0.075  1.00  0.00    -0.024 C 
ATOM     17  C   UNL     1      -2.637   0.190  -0.779  1.00  0.00     0.019 C 
ATOM     18  C   UNL     1      -3.310  -0.864   0.060  1.00  0.00     0.044 C 
ATOM     19  C   UNL     1      -3.720   1.145  -1.124  1.00  0.00    -0.015 A 
ATOM     20  N   UNL     1      -4.510  -0.217   0.549  1.00  0.00    -0.269 N 
ATOM     21  C   UNL     1      -4.853   0.786  -0.406  1.00  0.00     0.055 A 
ATOM     22  C   UNL     1      -3.747   2.268  -1.929  1.00  0.00    -0.056 A 
ATOM     23  C   UNL     1      -6.076   1.254  -0.870  1.00  0.00    -0.037 A 
ATOM     24  C   UNL     1      -4.913   3.017  -1.924  1.00  0.00    -0.062 A 
ATOM     25  C   UNL     1      -6.102   2.330  -1.731  1.00  0.00    -0.060 A 
BRANCH  20  26
ATOM     26  S   UNL     1      -5.359  -0.455   2.030  1.00  0.00     0.232 S 
ATOM     27  C   UNL     1      -4.650  -1.898   2.808  1.00  0.00     0.058 C 
ATOM     28  O   UNL     1      -6.811  -0.722   1.708  1.00  0.00    -0.207 OA
ATOM     29  O   UNL     1      -5.220   0.736   2.941  1.00  0.00    -0.207 OA
ENDBRANCH  20  26
ENDBRANCH   2  10
ENDBRANCH   1   2
BRANCH   1  30
ATOM     30  O   UNL     1       3.457   0.116   1.395  1.00  0.00    -0.374 OA
BRANCH  30  31
ATOM     31  C   UNL     1       4.562   0.499   0.620  1.00  0.00     0.072 C 
BRANCH  31  32
ATOM     32  C   UNL     1       4.905   1.923   0.906  1.00  0.00    -0.022 A 
ATOM     33  C   UNL     1       6.170   2.383   0.562  1.00  0.00    -0.057 A 
ATOM     34  C   UNL     1       3.875   2.854   0.893  1.00  0.00    -0.057 A 
ATOM     35  C   UNL     1       6.499   3.725   0.707  1.00  0.00    -0.062 A 
ATOM     36  C   UNL     1       4.230   4.151   1.234  1.00  0.00    -0.062 A 
ATOM     37  C   UNL     1       5.559   4.502   1.369  1.00  0.00    -0.062 A 
ENDBRANCH  31  32
ENDBRANCH  30  31
ENDBRANCH   1  30
TORSDOF 8

