
     RDKit          3D

 26 28  0  0  0  0  0  0  0  0999 V2000
    2.8858    2.0828    1.2474 C   0  0  0  0  0  0  0  0  0  0  0  0
    3.6161    0.9193    0.6701 C   0  0  0  0  0  0  0  0  0  0  0  0
    4.9954    1.0185    0.6222 C   0  0  0  0  0  0  0  0  0  0  0  0
    5.7058   -0.0090    0.0623 C   0  0  0  0  0  0  0  0  0  0  0  0
    7.1690   -0.0234    0.2449 C   0  0  0  0  0  0  0  0  0  0  0  0
    7.5283    0.1590    1.6499 N   0  0  0  0  0  0  0  0  0  0  0  0
    5.0226   -0.8611   -0.7883 C   0  0  0  0  0  0  0  0  0  0  0  0
    3.6537   -1.0495   -0.6555 C   0  0  0  0  0  0  0  0  0  0  0  0
    2.9264   -2.1336   -1.3854 C   0  0  0  0  0  0  0  0  0  0  0  0
    2.9262   -0.0063   -0.1042 C   0  0  0  0  0  0  0  0  0  0  0  0
    1.5515   -0.1807    0.2242 N   0  0  0  0  0  0  0  0  0  0  0  0
    0.6260   -0.4146   -0.8302 C   0  0  0  0  0  0  0  0  0  0  0  0
    0.7737    0.2428   -1.8989 O   0  0  0  0  0  0  0  0  0  0  0  0
   -0.7049   -0.9687   -0.5468 C   0  0  0  0  0  0  0  0  0  0  0  0
   -1.0146   -1.8315    0.4967 C   0  0  0  0  0  0  0  0  0  0  0  0
   -2.3998   -1.7654    0.5823 C   0  0  0  0  0  0  0  0  0  0  0  0
   -2.8545   -0.8267   -0.3313 C   0  0  0  0  0  0  0  0  0  0  0  0
   -4.0890   -0.0403   -0.2010 C   0  0  0  0  0  0  0  0  0  0  0  0
   -4.1407    1.2972   -0.5761 C   0  0  0  0  0  0  0  0  0  0  0  0
   -4.9639    2.1841    0.1049 C   0  0  0  0  0  0  0  0  0  0  0  0
   -4.5244    3.8735    0.3363 Cl  0  0  0  0  0  0  0  0  0  0  0  0
   -6.0801    1.6307    0.7198 C   0  0  0  0  0  0  0  0  0  0  0  0
   -6.2119    0.2489    0.7871 C   0  0  0  0  0  0  0  0  0  0  0  0
   -5.1579   -0.6024    0.4787 C   0  0  0  0  0  0  0  0  0  0  0  0
   -5.4019   -2.3321    0.3064 Cl  0  0  0  0  0  0  0  0  0  0  0  0
   -1.8370   -0.6116   -1.1257 O   0  0  0  0  0  0  0  0  0  0  0  0
  1  2  1  0
  2  3  2  0
  3  4  1  0
  4  5  1  0
  5  6  1  0
  4  7  2  0
  7  8  1  0
  8  9  1  0
  8 10  2  0
 10 11  1  0
 11 12  1  0
 12 13  2  0
 12 14  1  0
 14 15  2  0
 15 16  1  0
 16 17  2  0
 17 18  1  0
 18 19  2  0
 19 20  1  0
 20 21  1  0
 20 22  2  0
 22 23  1  0
 23 24  2  0
 24 25  1  0
 17 26  1  0
 10  2  1  0
 26 14  1  0
 24 18  1  0
M  END
>  <zinc_id>  (1) 
ZINC000071331761

>  <smiles>  (1) 
Cc1cc(CN)cc(C)c1NC(=O)c1ccc(-c2cc(Cl)ccc2Cl)o1

$$$$
