
     RDKit          3D

 31 34  0  0  0  0  0  0  0  0999 V2000
   -6.2040    1.3379    1.2587 C   0  0  0  0  0  0  0  0  0  0  0  0
   -5.6728    0.0251    1.1618 O   0  0  0  0  0  0  0  0  0  0  0  0
   -5.6470   -0.5785   -0.0986 C   0  0  0  0  0  0  0  0  0  0  0  0
   -6.4718   -0.2038   -0.9794 O   0  0  0  0  0  0  0  0  0  0  0  0
   -4.5935   -1.4736   -0.4777 N   0  0  0  0  0  0  0  0  0  0  0  0
   -4.9391   -2.8890   -0.4642 C   0  0  0  0  0  0  0  0  0  0  0  0
   -3.2252   -1.0616   -0.3757 C   0  0  0  0  0  0  0  0  0  0  0  0
   -2.9077    0.2611   -0.6253 C   0  0  0  0  0  0  0  0  0  0  0  0
   -3.6455    0.9668   -1.6299 N   0  0  0  0  0  0  0  0  0  0  0  0
   -1.8234    0.7628   -0.0229 N   0  0  0  0  0  0  0  0  0  0  0  0
   -0.8329   -0.0074    0.4909 C   0  0  0  0  0  0  0  0  0  0  0  0
    0.5735    0.3962    0.3624 C   0  0  0  0  0  0  0  0  0  0  0  0
    1.4000   -0.0302   -0.6230 N   0  0  0  0  0  0  0  0  0  0  0  0
    2.3608    0.8501   -0.8323 N   0  0  0  0  0  0  0  0  0  0  0  0
    3.4512    0.6586   -1.7735 C   0  0  0  0  0  0  0  0  0  0  0  0
    4.1599   -0.5895   -1.3547 C   0  0  0  0  0  0  0  0  0  0  0  0
    3.5104   -1.8133   -1.4444 C   0  0  0  0  0  0  0  0  0  0  0  0
    4.2589   -2.9202   -1.0774 C   0  0  0  0  0  0  0  0  0  0  0  0
    5.3860   -2.7755   -0.2865 C   0  0  0  0  0  0  0  0  0  0  0  0
    5.5903   -1.5509    0.3242 C   0  0  0  0  0  0  0  0  0  0  0  0
    5.0288   -0.4552   -0.2784 C   0  0  0  0  0  0  0  0  0  0  0  0
    5.5539    0.7727   -0.0050 F   0  0  0  0  0  0  0  0  0  0  0  0
    2.1984    1.9331   -0.0364 C   0  0  0  0  0  0  0  0  0  0  0  0
    2.5731    3.2291   -0.1577 N   0  0  0  0  0  0  0  0  0  0  0  0
    2.2480    4.0318    0.8845 C   0  0  0  0  0  0  0  0  0  0  0  0
    1.6392    3.5286    2.0281 C   0  0  0  0  0  0  0  0  0  0  0  0
    0.7820    2.4559    1.8119 C   0  0  0  0  0  0  0  0  0  0  0  0
    1.1312    1.5902    0.7848 C   0  0  0  0  0  0  0  0  0  0  0  0
   -1.1374   -1.3155    0.6578 N   0  0  0  0  0  0  0  0  0  0  0  0
   -2.2823   -1.8594    0.2277 C   0  0  0  0  0  0  0  0  0  0  0  0
   -2.4631   -3.2760    0.1653 N   0  0  0  0  0  0  0  0  0  0  0  0
  1  2  1  0
  2  3  1  0
  3  4  2  0
  3  5  1  0
  5  6  1  0
  5  7  1  0
  7  8  2  0
  8  9  1  0
  8 10  1  0
 10 11  2  0
 11 12  1  0
 12 13  2  0
 13 14  1  0
 14 15  1  0
 15 16  1  0
 16 17  2  0
 17 18  1  0
 18 19  2  0
 19 20  1  0
 20 21  2  0
 21 22  1  0
 14 23  1  0
 23 24  2  0
 24 25  1  0
 25 26  2  0
 26 27  1  0
 27 28  2  0
 11 29  1  0
 29 30  2  0
 30 31  1  0
 30  7  1  0
 28 12  1  0
 21 16  1  0
 28 23  1  0
M  END
>  <zinc_id>  (1) 
ZINC000003819392

>  <smiles>  (1) 
COC(=O)N(C)c1c(N)nc(-c2nn(Cc3ccccc3F)c3ncccc23)nc1N

$$$$
