REMARK SMILES Cc1cc(CN)cc(C)c1NC(=O)c1ccc(-c2cc(Cl)ccc2Cl)o1
REMARK SMILES IDX 11 1 12 2 13 3 10 4 1 5 2 6 3 7 4 8 8 9 7 10 9 11 5 12 6 13
REMARK SMILES IDX 14 14 15 15 26 16 16 17 17 18 18 19 19 20 24 21 20 22 23 23
REMARK SMILES IDX 25 24 21 25 22 26
REMARK H PARENT
REMARK Flexibility Score: inf
ROOT
ATOM      1  N   UNL     1       1.552  -0.181   0.224  1.00  0.00    -0.319 N 
ATOM      2  C   UNL     1       0.626  -0.415  -0.830  1.00  0.00     0.291 C 
ATOM      3  O   UNL     1       0.774   0.243  -1.899  1.00  0.00    -0.265 OA
ENDROOT
BRANCH   1   4
ATOM      4  C   UNL     1       2.926  -0.006  -0.104  1.00  0.00     0.047 A 
ATOM      5  C   UNL     1       2.886   2.083   1.247  1.00  0.00    -0.038 C 
ATOM      6  C   UNL     1       3.616   0.919   0.670  1.00  0.00    -0.027 A 
ATOM      7  C   UNL     1       4.995   1.018   0.622  1.00  0.00    -0.053 A 
ATOM      8  C   UNL     1       5.706  -0.009   0.062  1.00  0.00    -0.034 A 
ATOM      9  C   UNL     1       3.654  -1.050  -0.655  1.00  0.00    -0.027 A 
ATOM     10  C   UNL     1       5.023  -0.861  -0.788  1.00  0.00    -0.053 A 
ATOM     11  C   UNL     1       2.926  -2.134  -1.385  1.00  0.00    -0.038 C 
BRANCH   8  12
ATOM     12  C   UNL     1       7.169  -0.023   0.245  1.00  0.00     0.018 C 
ATOM     13  N   UNL     1       7.528   0.159   1.650  1.00  0.00    -0.326 NA
ENDBRANCH   8  12
ENDBRANCH   1   4
BRANCH   2  14
ATOM     14  C   UNL     1      -0.705  -0.969  -0.547  1.00  0.00     0.192 A 
ATOM     15  C   UNL     1      -1.015  -1.831   0.497  1.00  0.00    -0.010 A 
ATOM     16  O   UNL     1      -1.837  -0.612  -1.126  1.00  0.00    -0.451 OA
ATOM     17  C   UNL     1      -2.400  -1.765   0.582  1.00  0.00    -0.015 A 
ATOM     18  C   UNL     1      -2.854  -0.827  -0.331  1.00  0.00     0.136 A 
BRANCH  18  19
ATOM     19  C   UNL     1      -4.089  -0.040  -0.201  1.00  0.00     0.037 A 
ATOM     20  C   UNL     1      -4.141   1.297  -0.576  1.00  0.00    -0.031 A 
ATOM     21  C   UNL     1      -5.158  -0.602   0.479  1.00  0.00     0.052 A 
ATOM     22  C   UNL     1      -4.964   2.184   0.105  1.00  0.00     0.041 A 
ATOM     23  C   UNL     1      -6.212   0.249   0.787  1.00  0.00    -0.041 A 
ATOM     24  Cl  UNL     1      -5.402  -2.332   0.306  1.00  0.00    -0.084 Cl
ATOM     25  Cl  UNL     1      -4.524   3.873   0.336  1.00  0.00    -0.084 Cl
ATOM     26  C   UNL     1      -6.080   1.631   0.720  1.00  0.00    -0.042 A 
ENDBRANCH  18  19
ENDBRANCH   2  14
TORSDOF 4

