REMARK SMILES CCOc1nc2c(N)ncnc2n1CC
REMARK SMILES IDX 4 1 5 2 6 3 12 4 11 5 10 6 9 7 7 8 8 9 13 10 3 11 2 12 1 13
REMARK SMILES IDX 14 14 15 15
REMARK H PARENT
REMARK Flexibility Score: inf
ROOT
ATOM      1  C   UNL     1       1.275   0.133   0.212  1.00  0.00     0.298 A 
ATOM      2  N   UNL     1       0.330   1.018   0.606  1.00  0.00    -0.189 NA
ATOM      3  C   UNL     1      -0.845   0.520   0.164  1.00  0.00     0.154 A 
ATOM      4  C   UNL     1      -0.592  -0.723  -0.403  1.00  0.00     0.168 A 
ATOM      5  N   UNL     1      -1.579  -1.371  -1.045  1.00  0.00    -0.216 NA
ATOM      6  C   UNL     1      -2.853  -0.941  -0.903  1.00  0.00     0.120 A 
ATOM      7  N   UNL     1      -3.148   0.218  -0.268  1.00  0.00    -0.217 NA
ATOM      8  C   UNL     1      -2.166   0.905   0.362  1.00  0.00     0.155 A 
ATOM      9  N   UNL     1      -2.473   2.076   1.128  1.00  0.00    -0.382 N 
ATOM     10  N   UNL     1       0.639  -1.055   0.060  1.00  0.00    -0.279 N 
ENDROOT
BRANCH   1  11
ATOM     11  O   UNL     1       2.644   0.377   0.063  1.00  0.00    -0.465 OA
BRANCH  11  12
ATOM     12  C   UNL     1       3.107   1.699   0.232  1.00  0.00     0.089 C 
ATOM     13  C   UNL     1       2.738   2.582  -0.948  1.00  0.00    -0.031 C 
ENDBRANCH  11  12
ENDBRANCH   1  11
BRANCH  10  14
ATOM     14  C   UNL     1       1.317  -2.312  -0.240  1.00  0.00     0.026 C 
ATOM     15  C   UNL     1       1.605  -3.126   0.981  1.00  0.00    -0.047 C 
ENDBRANCH  10  14
TORSDOF 3

