
     RDKit          3D

 41 44  0  0  0  0  0  0  0  0999 V2000
   -5.1440    2.2326    2.0998 C   0  0  0  0  0  0  0  0  0  0  0  0
   -6.6149    1.8360    2.1610 C   0  0  0  0  0  0  0  0  0  0  0  0
   -6.8976    1.1039    0.9551 N   0  0  0  0  0  0  0  0  0  0  0  0
   -7.7673    1.7940    0.0431 C   0  0  0  0  0  0  0  0  0  0  0  0
   -9.1684    1.9688    0.5597 C   0  0  0  0  0  0  0  0  0  0  0  0
   -7.1906    3.1909   -0.1541 C   0  0  0  0  0  0  0  0  0  0  0  0
   -7.7630    1.0941   -1.2886 C   0  0  0  0  0  0  0  0  0  0  0  0
   -6.9079   -0.1413   -1.3103 C   0  0  0  0  0  0  0  0  0  0  0  0
   -5.5576    0.1128   -1.5993 O   0  0  0  0  0  0  0  0  0  0  0  0
   -4.5291   -0.6231   -1.0509 C   0  0  0  0  0  0  0  0  0  0  0  0
   -4.4236   -1.9864   -1.1010 C   0  0  0  0  0  0  0  0  0  0  0  0
   -3.1736   -2.5273   -0.8250 C   0  0  0  0  0  0  0  0  0  0  0  0
   -2.3700   -1.9150    0.1285 C   0  0  0  0  0  0  0  0  0  0  0  0
   -0.9811   -2.3353    0.3575 C   0  0  0  0  0  0  0  0  0  0  0  0
   -0.4925   -1.9727    1.4702 O   0  0  0  0  0  0  0  0  0  0  0  0
   -0.0621   -2.5849   -0.6849 N   0  0  0  0  0  0  0  0  0  0  0  0
    1.2251   -1.9593   -0.7674 C   0  0  0  0  0  0  0  0  0  0  0  0
    1.8336   -1.4556    0.3754 C   0  0  0  0  0  0  0  0  0  0  0  0
    2.6202   -0.3135    0.3237 C   0  0  0  0  0  0  0  0  0  0  0  0
    2.6486    0.4744   -0.8131 C   0  0  0  0  0  0  0  0  0  0  0  0
    3.7375    1.3983   -0.9229 N   0  0  0  0  0  0  0  0  0  0  0  0
    5.0604    1.0121   -0.5820 C   0  0  0  0  0  0  0  0  0  0  0  0
    5.1764    0.2600    0.4321 O   0  0  0  0  0  0  0  0  0  0  0  0
    6.1947    1.3200   -1.4006 N   0  0  0  0  0  0  0  0  0  0  0  0
    7.4987    0.8395   -1.0534 C   0  0  0  0  0  0  0  0  0  0  0  0
    8.4393    1.4652   -0.2449 C   0  0  0  0  0  0  0  0  0  0  0  0
    9.0991    0.4744    0.4720 C   0  0  0  0  0  0  0  0  0  0  0  0
    9.9465    0.6657    1.6902 C   0  0  0  0  0  0  0  0  0  0  0  0
    9.9503    2.1433    2.0407 C   0  0  0  0  0  0  0  0  0  0  0  0
   11.3446    0.1435    1.4763 C   0  0  0  0  0  0  0  0  0  0  0  0
    9.3010   -0.0575    2.8654 C   0  0  0  0  0  0  0  0  0  0  0  0
    8.7976   -0.6463   -0.1265 O   0  0  0  0  0  0  0  0  0  0  0  0
    7.8418   -0.4705   -0.9996 N   0  0  0  0  0  0  0  0  0  0  0  0
    2.2656   -0.1409   -1.9981 C   0  0  0  0  0  0  0  0  0  0  0  0
    1.5334   -1.3032   -1.9521 C   0  0  0  0  0  0  0  0  0  0  0  0
   -2.6380   -0.6047    0.3497 N   0  0  0  0  0  0  0  0  0  0  0  0
   -3.5178    0.0830   -0.4197 C   0  0  0  0  0  0  0  0  0  0  0  0
   -7.1107   -1.0297   -0.1148 C   0  0  0  0  0  0  0  0  0  0  0  0
   -7.2529   -0.2715    1.1758 C   0  0  0  0  0  0  0  0  0  0  0  0
   -6.2987   -0.8137    2.2333 C   0  0  0  0  0  0  0  0  0  0  0  0
   -8.6530   -0.4603    1.6896 C   0  0  0  0  0  0  0  0  0  0  0  0
  1  2  1  0
  2  3  1  0
  3  4  1  0
  4  5  1  0
  4  6  1  0
  4  7  1  0
  7  8  1  0
  8  9  1  0
  9 10  1  0
 10 11  2  0
 11 12  1  0
 12 13  2  0
 13 14  1  0
 14 15  2  0
 14 16  1  0
 16 17  1  0
 17 18  2  0
 18 19  1  0
 19 20  2  0
 20 21  1  0
 21 22  1  0
 22 23  2  0
 22 24  1  0
 24 25  1  0
 25 26  1  0
 26 27  2  0
 27 28  1  0
 28 29  1  0
 28 30  1  0
 28 31  1  0
 27 32  1  0
 32 33  1  0
 20 34  1  0
 34 35  2  0
 13 36  1  0
 36 37  2  0
  8 38  1  0
 38 39  1  0
 39 40  1  0
 39 41  1  0
 39  3  1  0
 37 10  1  0
 35 17  1  0
 33 25  2  0
M  END
>  <zinc_id>  (1) 
ZINC000095559390

>  <smiles>  (1) 
CCN1C(C)(C)CC(Oc2ccc(C(=O)Nc3ccc(NC(=O)Nc4cc(C(C)(C)C)on4)cc3)nc2)CC1(C)C

$$$$
