
     RDKit          3D

 23 25  0  0  0  0  0  0  0  0999 V2000
    7.0722    0.4730    2.0500 C   0  0  0  0  0  0  0  0  0  0  0  0
    5.9693   -0.0851    1.2435 C   0  0  0  0  0  0  0  0  0  0  0  0
    4.9168   -0.6756    1.9269 C   0  0  0  0  0  0  0  0  0  0  0  0
    3.7551   -1.0114    1.2423 C   0  0  0  0  0  0  0  0  0  0  0  0
    3.6326   -0.7247   -0.1118 C   0  0  0  0  0  0  0  0  0  0  0  0
    2.4254   -1.2357   -0.7694 C   0  0  0  0  0  0  0  0  0  0  0  0
    1.3191   -0.5112   -0.8938 C   0  0  0  0  0  0  0  0  0  0  0  0
    1.2856    0.8864   -0.3561 C   0  0  0  0  0  0  0  0  0  0  0  0
    0.2648    1.6855   -0.9686 N   0  0  0  0  0  0  0  0  0  0  0  0
   -1.0322    1.0943   -1.0207 C   0  0  0  0  0  0  0  0  0  0  0  0
   -1.1171   -0.2949   -0.5591 C   0  0  0  0  0  0  0  0  0  0  0  0
   -2.2250   -0.7075    0.0114 C   0  0  0  0  0  0  0  0  0  0  0  0
   -3.5248   -0.1454   -0.3775 C   0  0  0  0  0  0  0  0  0  0  0  0
   -4.5307   -1.0846   -0.5720 C   0  0  0  0  0  0  0  0  0  0  0  0
   -5.8679   -0.7802   -0.3635 C   0  0  0  0  0  0  0  0  0  0  0  0
   -6.2048    0.3751    0.3283 C   0  0  0  0  0  0  0  0  0  0  0  0
   -7.3455    0.3812    1.2973 C   0  0  0  0  0  0  0  0  0  0  0  0
   -5.2620    1.3951    0.3359 C   0  0  0  0  0  0  0  0  0  0  0  0
   -3.9478    1.1000    0.0575 C   0  0  0  0  0  0  0  0  0  0  0  0
    0.0116   -1.1837   -0.8680 C   0  0  0  0  0  0  0  0  0  0  0  0
   -0.1175   -2.4213   -0.7130 O   0  0  0  0  0  0  0  0  0  0  0  0
    4.6694   -0.1511   -0.8004 C   0  0  0  0  0  0  0  0  0  0  0  0
    5.8533    0.0577   -0.1193 C   0  0  0  0  0  0  0  0  0  0  0  0
  1  2  1  0
  2  3  2  0
  3  4  1  0
  4  5  2  0
  5  6  1  0
  6  7  2  0
  7  8  1  0
  8  9  1  0
  9 10  1  0
 10 11  1  0
 11 12  2  0
 12 13  1  0
 13 14  2  0
 14 15  1  0
 15 16  2  0
 16 17  1  0
 16 18  1  0
 18 19  2  0
 11 20  1  0
 20 21  2  0
  5 22  1  0
 22 23  2  0
 23  2  1  0
 20  7  1  0
 19 13  1  0
M  END
>  <zinc_id>  (1) 
ZINC000017195927

>  <smiles>  (1) 
Cc1ccc(/C=C2\CNC/C(=C\c3ccc(C)cc3)C2=O)cc1

$$$$
