
     RDKit          3D

 31 34  0  0  0  0  0  0  0  0999 V2000
    5.2420   -2.4221   -0.1754 C   0  0  0  0  0  0  0  0  0  0  0  0
    5.8815   -1.0761   -0.0349 C   0  0  0  0  0  0  0  0  0  0  0  0
    5.1928    0.0392   -0.2615 C   0  0  0  0  0  0  0  0  0  0  0  0
    5.8129    1.3240    0.1154 C   0  0  0  0  0  0  0  0  0  0  0  0
    3.7804   -0.1296   -0.5474 C   0  0  0  0  0  0  0  0  0  0  0  0
    3.4660   -0.9928   -1.4010 O   0  0  0  0  0  0  0  0  0  0  0  0
    2.7642    0.6958   -0.1269 O   0  0  0  0  0  0  0  0  0  0  0  0
    1.6726   -0.1524    0.5653 C   0  0  1  0  0  0  0  0  0  0  0  0
    1.5010    0.9589    1.7283 C   0  0  0  0  0  0  0  0  0  0  0  0
    2.5399    0.9641    2.8085 C   0  0  0  0  0  0  0  0  0  0  0  0
    0.2239    0.9224    1.9587 C   0  0  0  0  0  0  0  0  0  0  0  0
   -0.5428    0.7767    0.6685 C   0  0  2  0  0  0  0  0  0  0  0  0
   -1.6950    0.0787    1.0494 C   0  0  0  0  0  0  0  0  0  0  0  0
   -1.7778   -0.7049    1.9158 O   0  0  0  0  0  0  0  0  0  0  0  0
   -2.4931   -0.2580   -0.3135 C   0  0  1  0  0  0  0  0  0  0  0  0
   -2.0522   -1.7869   -0.2338 C   0  0  0  0  0  0  0  0  0  0  0  0
   -0.7098   -1.8245   -0.3294 C   0  0  0  0  0  0  0  0  0  0  0  0
   -0.2541   -3.1989   -0.7526 C   0  0  0  0  0  0  0  0  0  0  0  0
   -0.3555   -4.1241    0.2564 O   0  0  0  0  0  0  0  0  0  0  0  0
    0.2989   -0.8978   -1.2046 C   0  0  1  0  0  0  0  0  0  0  0  0
   -0.7794   -0.3108   -2.1080 O   0  0  0  0  0  0  0  0  0  0  0  0
    0.3849    0.4465   -0.2696 C   0  0  2  0  0  0  0  0  0  0  0  0
    0.7993    1.3807   -1.1469 O   0  0  0  0  0  0  0  0  0  0  0  0
   -3.8611   -0.2277    0.6835 C   0  0  1  0  0  0  0  0  0  0  0  0
   -3.7184    1.4735    0.9089 C   0  0  1  0  0  0  0  0  0  0  0  0
   -2.6112    1.8428   -0.2303 C   0  0  0  0  0  0  0  0  0  0  0  0
   -1.2205    2.2624    0.4848 C   0  0  1  0  0  0  0  0  0  0  0  0
   -1.8001    2.3310    2.0130 C   0  0  0  0  0  0  0  0  0  0  0  0
   -4.8460    0.8585   -0.1838 C   0  0  0  0  0  0  0  0  0  0  0  0
   -6.1597    0.9953    0.4974 C   0  0  0  0  0  0  0  0  0  0  0  0
   -4.6835    0.7562   -1.5472 C   0  0  0  0  0  0  0  0  0  0  0  0
  1  2  1  0
  2  3  2  0
  3  4  1  0
  3  5  1  0
  5  6  2  0
  5  7  1  0
  8  7  1  6
  8  9  1  0
  9 10  1  0
  9 11  2  0
 12 11  1  1
 12 13  1  0
 13 14  2  0
 13 15  1  0
 15 16  1  1
 16 17  2  0
 17 18  1  0
 18 19  1  0
 17 20  1  0
 20 21  1  6
 20 22  1  0
 22 23  1  6
 15 24  1  0
 24 25  1  0
 25 26  1  6
 26 27  1  0
 27 28  1  1
 25 29  1  0
 29 30  1  0
 29 31  1  0
 22  8  1  0
 24 29  1  6
 22 12  1  0
 27 12  1  0
M  END
>  <zinc_id>  (1) 
ZINC000100037855

>  <smiles>  (1) 
C/C=C(/C)C(=O)O[C@H]1C(C)=C[C@]23C(=O)[C@@H](C=C(CO)[C@@H](O)[C@]12O)[C@H]1[C@@H](C[C@H]3C)C1(C)C

$$$$
