
     RDKit          3D

 17 18  0  0  0  0  0  0  0  0999 V2000
   -0.6646    3.5598    0.1789 C   0  0  0  0  0  0  0  0  0  0  0  0
   -0.7211    2.2486    0.9308 C   0  0  0  0  0  0  0  0  0  0  0  0
   -0.5618    1.1192    0.0145 N   0  0  0  0  0  0  0  0  0  0  0  0
    0.7066    0.5440   -0.2567 C   0  0  0  0  0  0  0  0  0  0  0  0
    1.8935    0.6415    0.4646 C   0  0  0  0  0  0  0  0  0  0  0  0
    3.0240   -0.0910    0.1309 C   0  0  0  0  0  0  0  0  0  0  0  0
    3.8208   -0.6889    1.1119 O   0  0  0  0  0  0  0  0  0  0  0  0
    3.3053   -1.2324    2.3070 C   0  0  0  0  0  0  0  0  0  0  0  0
    3.0674   -0.4876   -1.2012 C   0  0  0  0  0  0  0  0  0  0  0  0
    1.8926   -0.6472   -1.9271 C   0  0  0  0  0  0  0  0  0  0  0  0
    0.6776   -0.2049   -1.4278 C   0  0  0  0  0  0  0  0  0  0  0  0
   -0.9971   -0.8788   -1.4645 S   0  0  0  0  0  0  0  0  0  0  0  0
   -1.6113    0.1510   -0.1166 C   0  0  0  0  0  0  0  0  0  0  0  0
   -2.9062    0.2811    0.0797 C   0  0  0  0  0  0  0  0  0  0  0  0
   -3.6390   -0.9736    0.2949 C   0  0  0  0  0  0  0  0  0  0  0  0
   -3.3750   -2.1050   -0.6257 C   0  0  0  0  0  0  0  0  0  0  0  0
   -3.9118   -1.2356    1.5064 O   0  0  0  0  0  0  0  0  0  0  0  0
  1  2  1  0
  2  3  1  0
  3  4  1  0
  4  5  2  0
  5  6  1  0
  6  7  1  0
  7  8  1  0
  6  9  2  0
  9 10  1  0
 10 11  2  0
 11 12  1  0
 12 13  1  0
 13 14  2  0
 14 15  1  0
 15 16  1  0
 15 17  2  0
 13  3  1  0
 11  4  1  0
M  END
>  <zinc_id>  (1) 
ZINC000004793192

>  <smiles>  (1) 
CCN1/C(=C/C(C)=O)Sc2ccc(OC)cc21

$$$$
