REMARK SMILES Cc1oncc1C(=O)Nc1ccc(C(F)(F)F)cc1
REMARK SMILES IDX 10 1 11 2 12 3 13 4 18 5 19 6 9 7 7 8 8 9 6 10 1 11 2 12
REMARK SMILES IDX 3 13 4 14 5 15 14 16 15 17 16 18 17 19
REMARK H PARENT
REMARK Flexibility Score: inf
ROOT
ATOM      1  C   UNL     1       0.392  -1.526   0.010  1.00  0.00     0.041 A 
ATOM      2  C   UNL     1       1.494  -1.886  -0.759  1.00  0.00    -0.038 A 
ATOM      3  C   UNL     1       2.732  -1.285  -0.546  1.00  0.00    -0.048 A 
ATOM      4  C   UNL     1       2.908  -0.314   0.435  1.00  0.00     0.056 A 
ATOM      5  C   UNL     1       1.927  -0.298   1.420  1.00  0.00    -0.048 A 
ATOM      6  C   UNL     1       0.753  -1.028   1.257  1.00  0.00    -0.038 A 
ENDROOT
BRANCH   1   7
ATOM      7  N   UNL     1      -0.874  -1.232  -0.599  1.00  0.00    -0.322 N 
ATOM      8  C   UNL     1      -2.023  -1.097   0.213  1.00  0.00     0.260 C 
ATOM      9  O   UNL     1      -2.192  -2.041   1.045  1.00  0.00    -0.269 OA
BRANCH   8  10
ATOM     10  C   UNL     1      -3.059  -0.079  -0.015  1.00  0.00     0.102 A 
ATOM     11  C   UNL     1      -1.527   2.007   0.140  1.00  0.00    -0.002 C 
ATOM     12  C   UNL     1      -2.832   1.294  -0.034  1.00  0.00     0.146 A 
ATOM     13  O   UNL     1      -4.022   1.837  -0.195  1.00  0.00    -0.361 OA
ATOM     14  N   UNL     1      -4.864   1.052   0.426  1.00  0.00    -0.087 NA
ATOM     15  C   UNL     1      -4.336  -0.193   0.527  1.00  0.00     0.083 A 
ENDBRANCH   8  10
ENDBRANCH   1   7
BRANCH   4  16
ATOM     16  C   UNL     1       3.709   0.918   0.146  1.00  0.00     0.416 C 
ATOM     17  F   UNL     1       4.964   0.503  -0.227  1.00  0.00    -0.166 F 
ATOM     18  F   UNL     1       3.137   1.680  -0.849  1.00  0.00    -0.166 F 
ATOM     19  F   UNL     1       3.712   1.688   1.286  1.00  0.00    -0.166 F 
ENDBRANCH   4  16
TORSDOF 3

