REMARK SMILES O=C1CCc2cc(OCCCCc3nnnn3C3CCCCC3)ccc2N1
REMARK SMILES IDX 10 1 9 2 8 3 7 4 1 5 2 6 3 7 27 8 4 9 26 10 5 11 25 12 6 13
REMARK SMILES IDX 24 14 11 15 12 16 13 17 14 18 17 19 15 20 16 21 18 22 19 23
REMARK SMILES IDX 23 24 20 25 22 26 21 27
REMARK H PARENT
REMARK Flexibility Score: inf
ROOT
ATOM      1  C   UNL     1      -0.185   0.082  -0.907  1.00  0.00    -0.018 C 
ENDROOT
BRANCH   1   2
ATOM      2  C   UNL     1      -0.001   0.952   0.329  1.00  0.00     0.088 C 
BRANCH   2   3
ATOM      3  O   UNL     1       1.060   0.492   1.130  1.00  0.00    -0.494 OA
BRANCH   3   4
ATOM      4  C   UNL     1       2.329   0.504   0.559  1.00  0.00     0.119 A 
ATOM      5  O   UNL     1       7.974  -0.994  -0.869  1.00  0.00    -0.275 OA
ATOM      6  C   UNL     1       7.130  -0.514  -0.053  1.00  0.00     0.224 C 
ATOM      7  C   UNL     1       6.455  -1.513   0.834  1.00  0.00     0.031 C 
ATOM      8  N   UNL     1       6.348   0.642  -0.376  1.00  0.00    -0.326 N 
ATOM      9  C   UNL     1       5.134  -1.848   0.150  1.00  0.00    -0.017 C 
ATOM     10  C   UNL     1       4.963   0.652  -0.009  1.00  0.00     0.044 A 
ATOM     11  C   UNL     1       4.342  -0.590  -0.018  1.00  0.00    -0.020 A 
ATOM     12  C   UNL     1       4.229   1.823   0.024  1.00  0.00    -0.035 A 
ATOM     13  C   UNL     1       2.984  -0.640   0.149  1.00  0.00    -0.015 A 
ATOM     14  C   UNL     1       2.869   1.704   0.171  1.00  0.00    -0.018 A 
ENDBRANCH   3   4
ENDBRANCH   2   3
ENDBRANCH   1   2
BRANCH   1  15
ATOM     15  C   UNL     1      -1.055  -1.090  -0.502  1.00  0.00    -0.043 C 
BRANCH  15  16
ATOM     16  C   UNL     1      -2.483  -0.842  -0.911  1.00  0.00     0.009 C 
BRANCH  16  17
ATOM     17  C   UNL     1      -3.458  -1.446   0.019  1.00  0.00     0.151 A 
ATOM     18  N   UNL     1      -3.775  -2.761   0.078  1.00  0.00    -0.114 NA
ATOM     19  N   UNL     1      -4.427  -0.810   0.713  1.00  0.00    -0.227 N 
ATOM     20  N   UNL     1      -4.447  -2.894   1.221  1.00  0.00    -0.024 NA
ATOM     21  N   UNL     1      -4.831  -1.691   1.616  1.00  0.00    -0.045 NA
BRANCH  19  22
ATOM     22  C   UNL     1      -4.576   0.616   0.904  1.00  0.00     0.056 C 
ATOM     23  C   UNL     1      -3.859   1.413  -0.149  1.00  0.00    -0.030 C 
ATOM     24  C   UNL     1      -6.062   0.953   0.962  1.00  0.00    -0.030 C 
ATOM     25  C   UNL     1      -4.772   2.259  -0.987  1.00  0.00    -0.051 C 
ATOM     26  C   UNL     1      -6.151   2.452   1.107  1.00  0.00    -0.051 C 
ATOM     27  C   UNL     1      -5.735   3.089  -0.189  1.00  0.00    -0.053 C 
ENDBRANCH  19  22
ENDBRANCH  16  17
ENDBRANCH  15  16
ENDBRANCH   1  15
TORSDOF 7

