REMARK SMILES O=C(c1ccc(Cl)cc1)N(Cc1ccccc1)C1CCCCC1
REMARK SMILES IDX 10 1 2 2 1 3 3 4 4 5 9 6 5 7 8 8 6 9 7 10 11 11 12 12 13 13
REMARK SMILES IDX 17 14 14 15 16 16 15 17 18 18 19 19 23 20 20 21 22 22 21 23
REMARK H PARENT
REMARK Flexibility Score: inf
ROOT
ATOM      1  N   UNL     1       0.271   0.519  -0.057  1.00  0.00    -0.331 N 
ENDROOT
BRANCH   1   2
ATOM      2  C   UNL     1      -1.144   0.606  -0.266  1.00  0.00     0.254 C 
ATOM      3  O   UNL     1      -1.749   1.713  -0.131  1.00  0.00    -0.269 OA
BRANCH   2   4
ATOM      4  C   UNL     1      -1.889  -0.584  -0.697  1.00  0.00     0.040 A 
ATOM      5  C   UNL     1      -1.592  -1.854  -0.218  1.00  0.00    -0.048 A 
ATOM      6  C   UNL     1      -3.187  -0.442  -1.173  1.00  0.00    -0.048 A 
ATOM      7  C   UNL     1      -2.584  -2.771   0.106  1.00  0.00    -0.043 A 
ATOM      8  C   UNL     1      -4.166  -1.401  -0.934  1.00  0.00    -0.043 A 
ATOM      9  C   UNL     1      -3.923  -2.418  -0.018  1.00  0.00     0.041 A 
ATOM     10  Cl  UNL     1      -5.122  -2.897   1.181  1.00  0.00    -0.084 Cl
ENDBRANCH   2   4
ENDBRANCH   1   2
BRANCH   1  11
ATOM     11  C   UNL     1       0.781  -0.737   0.487  1.00  0.00     0.046 C 
BRANCH  11  12
ATOM     12  C   UNL     1       2.083  -1.111  -0.112  1.00  0.00    -0.029 A 
ATOM     13  C   UNL     1       2.513  -2.417   0.070  1.00  0.00    -0.057 A 
ATOM     14  C   UNL     1       3.009  -0.223  -0.582  1.00  0.00    -0.057 A 
ATOM     15  C   UNL     1       3.861  -2.730   0.197  1.00  0.00    -0.062 A 
ATOM     16  C   UNL     1       4.358  -0.511  -0.457  1.00  0.00    -0.062 A 
ATOM     17  C   UNL     1       4.797  -1.722   0.034  1.00  0.00    -0.062 A 
ENDBRANCH  11  12
ENDBRANCH   1  11
BRANCH   1  18
ATOM     18  C   UNL     1       0.957   1.708   0.445  1.00  0.00     0.032 C 
ATOM     19  C   UNL     1       1.377   2.637  -0.655  1.00  0.00    -0.033 C 
ATOM     20  C   UNL     1       0.107   2.376   1.496  1.00  0.00    -0.033 C 
ATOM     21  C   UNL     1       0.431   3.795  -0.825  1.00  0.00    -0.051 C 
ATOM     22  C   UNL     1       0.448   3.830   1.687  1.00  0.00    -0.051 C 
ATOM     23  C   UNL     1       0.362   4.634   0.422  1.00  0.00    -0.053 C 
ENDBRANCH   1  18
TORSDOF 5

