
     RDKit          3D

 27 30  0  0  0  0  0  0  0  0999 V2000
   -7.4805   -1.1388    0.7477 O   0  0  0  0  0  0  0  0  0  0  0  0
   -7.0699   -0.7208   -0.3599 N   0  0  0  0  0  0  0  0  0  0  0  0
   -8.0325   -0.1317   -1.1617 O   0  0  0  0  0  0  0  0  0  0  0  0
   -5.7550   -0.1777   -0.4281 C   0  0  0  0  0  0  0  0  0  0  0  0
   -5.5190    1.1157   -0.8750 C   0  0  0  0  0  0  0  0  0  0  0  0
   -4.5410    1.8948   -0.2862 C   0  0  0  0  0  0  0  0  0  0  0  0
   -3.5512    1.2341    0.4289 C   0  0  0  0  0  0  0  0  0  0  0  0
   -2.6577    1.6544    1.3522 N   0  0  0  0  0  0  0  0  0  0  0  0
   -1.8641    0.6150    1.6440 C   0  0  0  0  0  0  0  0  0  0  0  0
   -0.4223    0.7288    2.0276 C   0  0  0  0  0  0  0  0  0  0  0  0
    0.2928   -0.3848    1.5690 O   0  0  0  0  0  0  0  0  0  0  0  0
    0.1536   -0.5320    0.1827 C   0  0  0  0  0  0  0  0  0  0  0  0
    1.5414   -0.5820   -0.3742 C   0  0  0  0  0  0  0  0  0  0  0  0
    1.9998   -0.0440   -1.5303 N   0  0  0  0  0  0  0  0  0  0  0  0
    3.3350    0.1039   -1.3676 C   0  0  0  0  0  0  0  0  0  0  0  0
    4.2937    0.9131   -1.9207 C   0  0  0  0  0  0  0  0  0  0  0  0
    5.5658    0.9885   -1.4022 C   0  0  0  0  0  0  0  0  0  0  0  0
    5.9238    0.2070   -0.3339 C   0  0  0  0  0  0  0  0  0  0  0  0
    7.2973    0.0135   -0.0113 N   0  0  0  0  0  0  0  0  0  0  0  0
    8.1900    0.3596   -0.8134 O   0  0  0  0  0  0  0  0  0  0  0  0
    7.6475   -0.5217    1.2098 O   0  0  0  0  0  0  0  0  0  0  0  0
    4.9943   -0.6207    0.2361 C   0  0  0  0  0  0  0  0  0  0  0  0
    3.7503   -0.7663   -0.3665 C   0  0  0  0  0  0  0  0  0  0  0  0
    2.5917   -1.3018    0.0907 N   0  0  0  0  0  0  0  0  0  0  0  0
   -2.5000   -0.5031    1.2387 N   0  0  0  0  0  0  0  0  0  0  0  0
   -3.5235   -0.1553    0.4241 C   0  0  0  0  0  0  0  0  0  0  0  0
   -4.6603   -0.8641    0.0796 C   0  0  0  0  0  0  0  0  0  0  0  0
  1  2  2  0
  2  3  1  0
  2  4  1  0
  4  5  2  0
  5  6  1  0
  6  7  2  0
  7  8  1  0
  8  9  2  0
  9 10  1  0
 10 11  1  0
 11 12  1  0
 12 13  1  0
 13 14  2  0
 14 15  1  0
 15 16  2  0
 16 17  1  0
 17 18  2  0
 18 19  1  0
 19 20  2  0
 19 21  1  0
 18 22  1  0
 22 23  2  0
 23 24  1  0
  9 25  1  0
 25 26  1  0
 26 27  2  0
 27  4  1  0
 26  7  1  0
 24 13  1  0
 23 15  1  0
M  CHG  4   2   1   3  -1  19   1  21  -1
M  END
>  <zinc_id>  (1) 
ZINC000071773618

>  <smiles>  (1) 
O=[N+]([O-])c1ccc2nc(COCc3nc4ccc([N+](=O)[O-])cc4[nH]3)[nH]c2c1

$$$$
