REMARK SMILES CC(C)C[C@H](NC(=O)[C@@H](NC(=O)c1cccc(-c2ccccc2)n1)[C@@H](C)O)B(O)O
REMARK SMILES IDX 6 1 7 2 8 3 5 4 4 5 2 6 1 7 3 8 28 9 29 10 30 11 9 12 10 13
REMARK SMILES IDX 11 14 12 15 13 16 14 17 24 18 15 19 17 20 16 21 18 22 19 23
REMARK SMILES IDX 23 24 20 25 22 26 21 27 25 28 26 29 27 30
REMARK H PARENT
REMARK Flexibility Score: inf
ROOT
ATOM      1  N   UNL     1       3.213   0.104   0.366  1.00  0.00    -0.353 N 
ATOM      2  C   UNL     1       2.325  -0.664  -0.408  1.00  0.00     0.245 C 
ATOM      3  O   UNL     1       2.010  -0.550  -1.574  1.00  0.00    -0.273 OA
ENDROOT
BRANCH   1   4
ATOM      4  C   UNL     1       4.215   0.912  -0.554  1.00  0.00     0.064 C 
BRANCH   4   5
ATOM      5  C   UNL     1       5.044   1.490   0.756  1.00  0.00    -0.032 C 
BRANCH   5   6
ATOM      6  C   UNL     1       5.949   2.518   0.110  1.00  0.00    -0.046 C 
ATOM      7  C   UNL     1       6.145   2.214  -0.853  1.00  0.00    -0.063 C 
ATOM      8  C   UNL     1       5.333   3.890   0.200  1.00  0.00    -0.063 C 
ENDBRANCH   5   6
ENDBRANCH   4   5
BRANCH   4   9
ATOM      9  B   UNL     1       5.242  -0.459  -0.776  1.00  0.00     0.475 B 
ATOM     10  O   UNL     1       4.793  -1.378  -1.810  1.00  0.00    -0.426 OA
ATOM     11  O   UNL     1       5.972  -0.972   0.330  1.00  0.00    -0.426 OA
ENDBRANCH   4   9
ENDBRANCH   1   4
BRANCH   2  12
ATOM     12  C   UNL     1       1.425  -1.591   0.568  1.00  0.00     0.134 C 
BRANCH  12  13
ATOM     13  N   UNL     1       0.062  -1.165  -0.121  1.00  0.00    -0.337 N 
ATOM     14  C   UNL     1      -0.782  -0.440   0.786  1.00  0.00     0.270 C 
ATOM     15  O   UNL     1      -0.251   0.584   1.260  1.00  0.00    -0.267 OA
BRANCH  14  16
ATOM     16  C   UNL     1      -2.224  -0.632   0.656  1.00  0.00     0.128 A 
ATOM     17  C   UNL     1      -2.715  -1.903   0.933  1.00  0.00    -0.031 A 
ATOM     18  N   UNL     1      -2.920   0.156  -0.203  1.00  0.00    -0.243 NA
ATOM     19  C   UNL     1      -3.815  -2.422   0.262  1.00  0.00    -0.058 A 
ATOM     20  C   UNL     1      -4.180  -0.172  -0.583  1.00  0.00     0.071 A 
ATOM     21  C   UNL     1      -4.491  -1.518  -0.548  1.00  0.00    -0.036 A 
BRANCH  20  22
ATOM     22  C   UNL     1      -5.210   0.873  -0.642  1.00  0.00     0.000 A 
ATOM     23  C   UNL     1      -5.253   1.843  -1.613  1.00  0.00    -0.053 A 
ATOM     24  C   UNL     1      -6.016   1.031   0.480  1.00  0.00    -0.053 A 
ATOM     25  C   UNL     1      -5.755   3.089  -1.285  1.00  0.00    -0.062 A 
ATOM     26  C   UNL     1      -6.510   2.272   0.862  1.00  0.00    -0.062 A 
ATOM     27  C   UNL     1      -6.496   3.241  -0.133  1.00  0.00    -0.062 A 
ENDBRANCH  20  22
ENDBRANCH  14  16
ENDBRANCH  12  13
BRANCH  12  28
ATOM     28  C   UNL     1       1.571  -2.988  -0.476  1.00  0.00     0.080 C 
ATOM     29  C   UNL     1       2.797  -3.615   0.456  1.00  0.00    -0.036 C 
ATOM     30  O   UNL     1       0.522  -3.750   0.335  1.00  0.00    -0.391 OA
ENDBRANCH  12  28
ENDBRANCH   2  12
TORSDOF 9

