REMARK SMILES CCCc1cc(C)[nH]c(=O)c1CNC(=O)c1cc(-c2ccc(N3CCN(C(C)C)CC3)nc2)cc2c1cnn2C(C)C
REMARK SMILES IDX 13 1 14 2 15 3 12 4 11 5 4 6 5 7 6 8 9 9 7 10 8 11 10 12
REMARK SMILES IDX 3 13 2 14 1 15 16 16 17 17 36 18 18 19 35 20 37 21 34 22
REMARK SMILES IDX 39 23 38 24 19 25 20 26 33 27 21 28 32 29 22 30 23 31 24 32
REMARK SMILES IDX 31 33 25 34 30 35 26 36 27 37 28 38 29 39 40 40 41 41 42 42
REMARK H PARENT
REMARK Flexibility Score: inf
ROOT
ATOM      1  N   UNL     1      -3.864  -0.086  -0.091  1.00  0.00    -0.348 N 
ATOM      2  C   UNL     1      -2.682  -0.008  -0.859  1.00  0.00     0.252 C 
ATOM      3  O   UNL     1      -2.666   0.742  -1.870  1.00  0.00    -0.269 OA
ENDROOT
BRANCH   1   4
ATOM      4  C   UNL     1      -4.936   0.899  -0.166  1.00  0.00     0.049 C 
BRANCH   4   5
ATOM      5  C   UNL     1      -6.238   0.284  -0.496  1.00  0.00     0.040 A 
ATOM      6  C   UNL     1      -6.954  -0.409   0.460  1.00  0.00    -0.036 A 
ATOM      7  C   UNL     1      -8.067  -1.105   0.011  1.00  0.00    -0.039 A 
ATOM      8  C   UNL     1      -8.558  -0.943  -1.278  1.00  0.00     0.015 A 
ATOM      9  C   UNL     1      -6.774   0.473  -1.754  1.00  0.00     0.253 A 
ATOM     10  C   UNL     1      -9.836  -1.617  -1.625  1.00  0.00    -0.024 C 
ATOM     11  N   UNL     1      -7.896  -0.160  -2.164  1.00  0.00    -0.326 N 
ATOM     12  O   UNL     1      -6.276   1.342  -2.532  1.00  0.00    -0.269 OA
BRANCH   6  13
ATOM     13  C   UNL     1      -6.729  -0.133   1.903  1.00  0.00    -0.028 C 
BRANCH  13  14
ATOM     14  C   UNL     1      -5.986  -1.241   2.596  1.00  0.00    -0.052 C 
ATOM     15  C   UNL     1      -5.422  -0.717   3.890  1.00  0.00    -0.065 C 
ENDBRANCH  13  14
ENDBRANCH   6  13
ENDBRANCH   4   5
ENDBRANCH   1   4
BRANCH   2  16
ATOM     16  C   UNL     1      -1.383  -0.411  -0.317  1.00  0.00     0.051 A 
ATOM     17  C   UNL     1      -0.298  -0.547  -1.157  1.00  0.00    -0.041 A 
ATOM     18  C   UNL     1      -1.121  -0.415   1.048  1.00  0.00     0.033 A 
ATOM     19  C   UNL     1       0.959  -0.788  -0.616  1.00  0.00    -0.014 A 
ATOM     20  C   UNL     1       0.140  -0.076   1.522  1.00  0.00     0.070 A 
ATOM     21  C   UNL     1      -1.952  -0.263   2.140  1.00  0.00     0.058 A 
ATOM     22  C   UNL     1       1.190  -0.203   0.623  1.00  0.00    -0.028 A 
ATOM     23  N   UNL     1       0.038   0.397   2.788  1.00  0.00    -0.262 N 
ATOM     24  N   UNL     1      -1.205   0.147   3.185  1.00  0.00    -0.180 NA
BRANCH  19  25
ATOM     25  C   UNL     1       2.127  -1.066  -1.454  1.00  0.00     0.000 A 
ATOM     26  C   UNL     1       2.964  -2.145  -1.195  1.00  0.00    -0.049 A 
ATOM     27  C   UNL     1       2.689  -0.056  -2.226  1.00  0.00     0.037 A 
ATOM     28  C   UNL     1       4.330  -1.992  -1.398  1.00  0.00    -0.019 A 
ATOM     29  N   UNL     1       4.031   0.110  -2.318  1.00  0.00    -0.239 NA
ATOM     30  C   UNL     1       4.883  -0.760  -1.723  1.00  0.00     0.128 A 
BRANCH  30  31
ATOM     31  N   UNL     1       6.107  -0.327  -1.119  1.00  0.00    -0.354 N 
ATOM     32  C   UNL     1       6.433   1.096  -1.086  1.00  0.00     0.032 C 
ATOM     33  C   UNL     1       6.995  -1.351  -0.640  1.00  0.00     0.032 C 
ATOM     34  C   UNL     1       7.207   1.403   0.175  1.00  0.00     0.016 C 
ATOM     35  C   UNL     1       8.017  -0.863   0.342  1.00  0.00     0.016 C 
ATOM     36  N   UNL     1       8.345   0.527   0.211  1.00  0.00    -0.297 NA
BRANCH  36  37
ATOM     37  C   UNL     1       9.339   0.810  -0.786  1.00  0.00     0.004 C 
ATOM     38  C   UNL     1      10.707   0.554  -0.180  1.00  0.00    -0.050 C 
ATOM     39  C   UNL     1       9.219  -0.042  -2.019  1.00  0.00    -0.050 C 
ENDBRANCH  36  37
ENDBRANCH  30  31
ENDBRANCH  19  25
BRANCH  23  40
ATOM     40  C   UNL     1       0.994   1.268   3.443  1.00  0.00     0.047 C 
ATOM     41  C   UNL     1       0.275   2.289   4.286  1.00  0.00    -0.043 C 
ATOM     42  C   UNL     1       1.853   2.003   2.446  1.00  0.00    -0.043 C 
ENDBRANCH  23  40
ENDBRANCH   2  16
TORSDOF 9

