REMARK SMILES NC(=O)N1CCC(CC(=O)N2CCC([C@H]3c4ncc(Br)cc4CCc4cc(Cl)cc(Br)c43)CC2)CC1
REMARK SMILES IDX 9 1 10 2 11 3 12 4 13 5 14 6 33 7 34 8 8 9 7 10 1 11 2 12
REMARK SMILES IDX 3 13 4 14 5 15 36 16 6 17 35 18 15 19 16 20 17 21 22 22
REMARK SMILES IDX 18 23 21 24 19 25 20 26 23 27 32 29 25 30 30 31 26 32 29 33
REMARK SMILES IDX 31 34 27 35 28 36 24 37
REMARK H PARENT
REMARK Flexibility Score: 90.00
ROOT
ATOM      1  C   UNL     1       2.444   1.579   0.371  1.00  0.00     0.222 C 
ATOM      2  O   UNL     1       2.749   2.189   1.441  1.00  0.00    -0.275 OA
ATOM      3  N   UNL     1       1.322   0.692   0.330  1.00  0.00    -0.343 N 
ATOM      4  C   UNL     1       1.234  -0.367  -0.642  1.00  0.00     0.021 C 
ATOM      5  C   UNL     1      -0.108  -0.512  -1.274  1.00  0.00    -0.032 C 
ATOM      6  C   UNL     1      -1.135  -0.549  -0.214  1.00  0.00    -0.025 C 
ATOM      7  C   UNL     1      -0.962   0.147   1.013  1.00  0.00    -0.032 C 
ATOM      8  C   UNL     1       0.266   0.941   1.278  1.00  0.00     0.021 C 
ENDROOT
BRANCH   1   9
ATOM      9  C   UNL     1       3.328   1.667  -0.807  1.00  0.00     0.030 C 
BRANCH   9  10
ATOM     10  C   UNL     1       4.202   0.436  -0.815  1.00  0.00    -0.029 C 
ATOM     11  N   UNL     1       8.819  -1.333  -0.108  1.00  0.00    -0.351 N 
ATOM     12  C   UNL     1       8.113  -0.512   0.337  1.00  0.00     0.314 C 
ATOM     13  O   UNL     1       8.575   0.663   0.454  1.00  0.00    -0.249 OA
ATOM     14  N   UNL     1       6.719  -0.591   0.017  1.00  0.00    -0.325 N 
ATOM     15  C   UNL     1       5.777  -0.186   1.051  1.00  0.00     0.022 C 
ATOM     16  C   UNL     1       6.396  -0.420  -1.397  1.00  0.00     0.022 C 
ATOM     17  C   UNL     1       4.365  -0.182   0.539  1.00  0.00    -0.032 C 
ATOM     18  C   UNL     1       5.500   0.807  -1.474  1.00  0.00    -0.032 C 
ENDBRANCH   9  10
ENDBRANCH   1   9
BRANCH   6  19
ATOM     19  C   UNL     1      -2.590  -0.187  -0.937  1.00  0.00     0.031 C 
BRANCH  19  20
ATOM     20  C   UNL     1      -3.300  -1.490  -0.234  1.00  0.00     0.051 A 
ATOM     21  N   UNL     1      -2.506  -2.539  -0.576  1.00  0.00    -0.259 NA
ATOM     22  C   UNL     1      -4.613  -1.666  -0.676  1.00  0.00    -0.024 A 
ATOM     23  C   UNL     1      -2.959  -3.756  -0.185  1.00  0.00     0.041 A 
ATOM     24  C   UNL     1      -5.151  -2.946  -0.610  1.00  0.00    -0.041 A 
ATOM     25  C   UNL     1      -4.318  -3.996  -0.249  1.00  0.00     0.036 A 
ATOM     26  Br  UNL     1      -4.918  -5.792  -0.324  1.00  0.00    -0.049 Br
BRANCH  22  27
ATOM     27  C   UNL     1      -5.696  -0.640  -0.547  1.00  0.00    -0.022 CG0
ATOM     28  G   UNL     1      -5.435  -0.010   0.817  1.00  0.00     0.000 G0
ENDBRANCH  22  27
ENDBRANCH  19  20
BRANCH  19  29
ATOM     29  C   UNL     1      -3.056   0.858   0.228  1.00  0.00    -0.021 A 
ATOM     30  C   UNL     1      -4.281   0.904   0.805  1.00  0.00    -0.041 A 
ATOM     31  C   UNL     1      -2.515   2.074  -0.181  1.00  0.00     0.023 A 
ATOM     32  C   UNL     1      -4.446   1.925   1.738  1.00  0.00    -0.040 A 
ATOM     33  C   UNL     1      -2.844   3.192   0.577  1.00  0.00    -0.029 A 
ATOM     34  Br  UNL     1      -1.780   2.344  -1.932  1.00  0.00    -0.050 Br
ATOM     35  C   UNL     1      -3.625   3.041   1.716  1.00  0.00     0.042 A 
ATOM     36  Cl  UNL     1      -3.569   4.213   3.017  1.00  0.00    -0.084 Cl
BRANCH  30  37
ATOM     37  C   UNL     1      -5.435  -0.010   0.817  1.00  0.00    -0.023 CG0
ATOM     38  G   UNL     1      -5.696  -0.640  -0.547  1.00  0.00     0.000 G0
ENDBRANCH  30  37
ENDBRANCH  19  29
ENDBRANCH   6  19
TORSDOF 3

