REMARK SMILES CC(C)CC(=O)Nc1[nH]nc2c1CN(C(=O)C1CCN(C)CC1)C2(C)C
REMARK SMILES IDX 8 1 9 2 10 3 11 4 12 5 13 6 14 7 24 8 25 9 26 10 7 11 5 12
REMARK SMILES IDX 6 13 4 14 2 15 1 16 3 17 15 18 16 19 17 20 18 21 23 22 19 23
REMARK SMILES IDX 22 24 20 25 21 26
REMARK H PARENT
REMARK Flexibility Score: inf
ROOT
ATOM      1  C   UNL     1       2.156  -1.253  -0.003  1.00  0.00     0.133 A 
ATOM      2  N   UNL     1       2.363  -1.275   1.337  1.00  0.00    -0.262 N 
ATOM      3  N   UNL     1       1.577  -0.363   1.910  1.00  0.00    -0.176 NA
ATOM      4  C   UNL     1       0.725   0.159   1.008  1.00  0.00     0.095 A 
ATOM      5  C   UNL     1       0.947  -0.583  -0.146  1.00  0.00     0.039 A 
ATOM      6  C   UNL     1      -0.226  -0.449  -1.042  1.00  0.00     0.052 C 
ATOM      7  N   UNL     1      -1.238   0.123  -0.155  1.00  0.00    -0.327 N 
ATOM      8  C   UNL     1      -0.501   0.972   0.735  1.00  0.00     0.082 C 
ATOM      9  C   UNL     1      -1.165   1.230   2.048  1.00  0.00    -0.036 C 
ATOM     10  C   UNL     1      -0.072   2.274   0.123  1.00  0.00    -0.036 C 
ENDROOT
BRANCH   1  11
ATOM     11  N   UNL     1       3.119  -1.434  -1.049  1.00  0.00    -0.311 N 
ATOM     12  C   UNL     1       4.525  -1.389  -0.806  1.00  0.00     0.225 C 
ATOM     13  O   UNL     1       4.892  -1.909   0.291  1.00  0.00    -0.275 OA
BRANCH  12  14
ATOM     14  C   UNL     1       5.448  -0.517  -1.597  1.00  0.00     0.029 C 
BRANCH  14  15
ATOM     15  C   UNL     1       5.685   0.718  -0.737  1.00  0.00    -0.038 C 
ATOM     16  C   UNL     1       6.460   0.394   0.508  1.00  0.00    -0.062 C 
ATOM     17  C   UNL     1       6.253   1.865  -1.521  1.00  0.00    -0.062 C 
ENDBRANCH  14  15
ENDBRANCH  12  14
ENDBRANCH   1  11
BRANCH   7  18
ATOM     18  C   UNL     1      -2.643   0.058  -0.429  1.00  0.00     0.226 C 
ATOM     19  O   UNL     1      -2.964   0.246  -1.641  1.00  0.00    -0.275 OA
BRANCH  18  20
ATOM     20  C   UNL     1      -3.566  -0.818   0.349  1.00  0.00     0.041 C 
ATOM     21  C   UNL     1      -4.730  -1.308  -0.465  1.00  0.00    -0.029 C 
ATOM     22  C   UNL     1      -4.108  -0.151   1.577  1.00  0.00    -0.029 C 
ATOM     23  C   UNL     1      -5.692  -0.219  -0.851  1.00  0.00    -0.001 C 
ATOM     24  C   UNL     1      -5.332   0.680   1.331  1.00  0.00    -0.001 C 
ATOM     25  N   UNL     1      -5.441   0.978  -0.078  1.00  0.00    -0.306 NA
ATOM     26  C   UNL     1      -6.469   1.968  -0.294  1.00  0.00    -0.013 C 
ENDBRANCH  18  20
ENDBRANCH   7  18
TORSDOF 5

