
     RDKit          3D

 20 22  0  0  0  0  0  0  0  0999 V2000
    4.1368    2.3173   -0.3621 C   0  0  0  0  0  0  0  0  0  0  0  0
    4.4529    1.0507    0.1680 O   0  0  0  0  0  0  0  0  0  0  0  0
    3.5662    0.0176   -0.0789 C   0  0  0  0  0  0  0  0  0  0  0  0
    4.0655   -1.2713    0.0644 C   0  0  0  0  0  0  0  0  0  0  0  0
    3.1512   -2.3164    0.0200 C   0  0  0  0  0  0  0  0  0  0  0  0
    1.8299   -2.0369   -0.2166 C   0  0  0  0  0  0  0  0  0  0  0  0
    1.3359   -0.7409   -0.1464 C   0  0  0  0  0  0  0  0  0  0  0  0
   -0.0830   -0.4842   -0.3507 C   0  0  0  0  0  0  0  0  0  0  0  0
   -0.9019   -1.5281   -0.7638 C   0  0  0  0  0  0  0  0  0  0  0  0
   -2.2804   -1.3536   -0.8075 C   0  0  0  0  0  0  0  0  0  0  0  0
   -3.0729   -2.3427   -0.7585 O   0  0  0  0  0  0  0  0  0  0  0  0
   -2.7129   -0.0554   -0.5596 C   0  0  0  0  0  0  0  0  0  0  0  0
   -4.0613    0.2235   -0.7208 C   0  0  0  0  0  0  0  0  0  0  0  0
   -4.5331    1.4506   -0.2725 C   0  0  0  0  0  0  0  0  0  0  0  0
   -3.8328    2.0677    0.7525 C   0  0  0  0  0  0  0  0  0  0  0  0
   -2.4686    1.8768    0.8928 C   0  0  0  0  0  0  0  0  0  0  0  0
   -1.9259    0.8004    0.2015 C   0  0  0  0  0  0  0  0  0  0  0  0
   -0.6251    0.6140    0.1278 O   0  0  0  0  0  0  0  0  0  0  0  0
    2.2179    0.2581    0.1581 C   0  0  0  0  0  0  0  0  0  0  0  0
    1.7415    1.4528    0.7553 N   0  0  0  0  0  0  0  0  0  0  0  0
  1  2  1  0
  2  3  1  0
  3  4  2  0
  4  5  1  0
  5  6  2  0
  6  7  1  0
  7  8  1  0
  8  9  2  0
  9 10  1  0
 10 11  2  0
 10 12  1  0
 12 13  2  0
 13 14  1  0
 14 15  2  0
 15 16  1  0
 16 17  2  0
 17 18  1  0
  7 19  2  0
 19 20  1  0
 19  3  1  0
 18  8  1  0
 17 12  1  0
M  END
>  <zinc_id>  (1) 
ZINC000001420826

>  <smiles>  (1) 
COc1cccc(-c2cc(=O)c3ccccc3o2)c1N

$$$$
