
     RDKit          3D

 29 32  0  0  0  0  0  0  0  0999 V2000
   -5.3065    2.1006   -0.7738 N   0  0  0  0  0  0  0  0  0  0  0  0
   -4.3009    1.3674   -0.0903 C   0  0  0  0  0  0  0  0  0  0  0  0
   -4.0479    0.0267   -0.3575 C   0  0  0  0  0  0  0  0  0  0  0  0
   -2.8380   -0.5753   -0.0171 C   0  0  0  0  0  0  0  0  0  0  0  0
   -2.6800   -2.0178    0.1727 C   0  0  0  0  0  0  0  0  0  0  0  0
   -2.0916   -2.4090    1.3437 F   0  0  0  0  0  0  0  0  0  0  0  0
   -3.9894   -2.4976    0.3432 F   0  0  0  0  0  0  0  0  0  0  0  0
   -2.2738   -2.7141   -0.9370 F   0  0  0  0  0  0  0  0  0  0  0  0
   -1.8847    0.2251    0.5836 C   0  0  0  0  0  0  0  0  0  0  0  0
   -0.5132    0.0209    0.2288 C   0  0  0  0  0  0  0  0  0  0  0  0
    0.1409   -1.0843   -0.1721 C   0  0  0  0  0  0  0  0  0  0  0  0
    1.4888   -1.1361   -0.4737 C   0  0  0  0  0  0  0  0  0  0  0  0
    2.2773   -2.2873   -0.1468 N   0  0  0  0  0  0  0  0  0  0  0  0
    3.4473   -2.0264    0.6786 C   0  0  0  0  0  0  0  0  0  0  0  0
    3.9934   -3.2750    1.3134 C   0  0  0  0  0  0  0  0  0  0  0  0
    4.1891   -4.2044    0.2992 O   0  0  0  0  0  0  0  0  0  0  0  0
    2.9798   -4.5754   -0.3049 C   0  0  0  0  0  0  0  0  0  0  0  0
    2.3290   -3.4365   -1.0391 C   0  0  0  0  0  0  0  0  0  0  0  0
    2.0560    0.0514   -0.7987 N   0  0  0  0  0  0  0  0  0  0  0  0
    1.3454    1.1995   -0.6723 C   0  0  0  0  0  0  0  0  0  0  0  0
    2.0759    2.4337   -0.6575 N   0  0  0  0  0  0  0  0  0  0  0  0
    2.4745    2.8878    0.6745 C   0  0  0  0  0  0  0  0  0  0  0  0
    1.4841    3.9943    1.0219 C   0  0  0  0  0  0  0  0  0  0  0  0
    1.8134    5.1058    0.2710 O   0  0  0  0  0  0  0  0  0  0  0  0
    1.9733    4.8530   -1.0752 C   0  0  0  0  0  0  0  0  0  0  0  0
    1.5142    3.4873   -1.5003 C   0  0  0  0  0  0  0  0  0  0  0  0
    0.2491    1.1389    0.0856 N   0  0  0  0  0  0  0  0  0  0  0  0
   -2.3125    1.4613    1.0577 C   0  0  0  0  0  0  0  0  0  0  0  0
   -3.5929    1.8855    0.9424 N   0  0  0  0  0  0  0  0  0  0  0  0
  1  2  1  0
  2  3  2  0
  3  4  1  0
  4  5  1  0
  5  6  1  0
  5  7  1  0
  5  8  1  0
  4  9  2  0
  9 10  1  0
 10 11  2  0
 11 12  1  0
 12 13  1  0
 13 14  1  0
 14 15  1  0
 15 16  1  0
 16 17  1  0
 17 18  1  0
 12 19  2  0
 19 20  1  0
 20 21  1  0
 21 22  1  0
 22 23  1  0
 23 24  1  0
 24 25  1  0
 25 26  1  0
 20 27  2  0
  9 28  1  0
 28 29  2  0
 29  2  1  0
 27 10  1  0
 18 13  1  0
 26 21  1  0
M  END
>  <zinc_id>  (1) 
ZINC000043154039

>  <smiles>  (1) 
Nc1cc(C(F)(F)F)c(-c2cc(N3CCOCC3)nc(N3CCOCC3)n2)cn1

$$$$
