REMARK SMILES COc1ncc2cc(C(=O)Nc3cc(C(=O)NCc4cccc(Cl)c4)ccc3Cl)c(=O)[nH]c2n1
REMARK SMILES IDX 12 1 13 2 14 3 26 4 27 5 28 6 29 7 11 8 9 9 10 10 8 11 3 12
REMARK SMILES IDX 4 13 34 14 5 15 33 16 6 17 32 18 7 19 30 20 31 21 2 22 1 23
REMARK SMILES IDX 15 24 16 25 17 26 18 27 19 28 20 29 25 30 21 31 23 32 22 33
REMARK SMILES IDX 24 34
REMARK H PARENT
REMARK Flexibility Score: inf
ROOT
ATOM      1  C   UNL     1       0.111  -1.685   0.895  1.00  0.00     0.061 A 
ATOM      2  C   UNL     1       0.954  -0.608   0.678  1.00  0.00    -0.024 A 
ATOM      3  C   UNL     1       2.238  -0.756   0.201  1.00  0.00     0.041 A 
ATOM      4  C   UNL     1       2.606  -2.032  -0.207  1.00  0.00    -0.048 A 
ATOM      5  C   UNL     1       1.837  -3.130   0.155  1.00  0.00    -0.041 A 
ATOM      6  C   UNL     1       0.635  -2.963   0.825  1.00  0.00     0.064 A 
ATOM      7  Cl  UNL     1      -0.137  -4.239   1.729  1.00  0.00    -0.082 Cl
ENDROOT
BRANCH   1   8
ATOM      8  N   UNL     1      -1.308  -1.529   1.003  1.00  0.00    -0.320 N 
ATOM      9  C   UNL     1      -2.200  -1.904  -0.032  1.00  0.00     0.261 C 
ATOM     10  O   UNL     1      -1.762  -2.731  -0.887  1.00  0.00    -0.269 OA
BRANCH   9  11
ATOM     11  C   UNL     1      -3.362  -1.123  -0.427  1.00  0.00     0.106 A 
ATOM     12  C   UNL     1      -6.492   2.444  -0.170  1.00  0.00     0.318 A 
ATOM     13  N   UNL     1      -5.310   3.100  -0.259  1.00  0.00    -0.203 NA
ATOM     14  N   UNL     1      -6.644   1.176  -0.612  1.00  0.00    -0.177 NA
ATOM     15  C   UNL     1      -4.293   2.380  -0.793  1.00  0.00     0.044 A 
ATOM     16  C   UNL     1      -5.592   0.393  -0.868  1.00  0.00     0.147 A 
ATOM     17  C   UNL     1      -4.340   0.991  -0.796  1.00  0.00     0.037 A 
ATOM     18  N   UNL     1      -5.642  -0.923  -1.077  1.00  0.00    -0.306 N 
ATOM     19  C   UNL     1      -3.218   0.212  -0.785  1.00  0.00    -0.031 A 
ATOM     20  C   UNL     1      -4.577  -1.703  -0.769  1.00  0.00     0.262 A 
ATOM     21  O   UNL     1      -4.651  -2.963  -0.885  1.00  0.00    -0.269 OA
BRANCH  12  22
ATOM     22  O   UNL     1      -7.551   3.186   0.357  1.00  0.00    -0.467 OA
ATOM     23  C   UNL     1      -8.218   4.078  -0.532  1.00  0.00     0.081 C 
ENDBRANCH  12  22
ENDBRANCH   9  11
ENDBRANCH   1   8
BRANCH   3  24
ATOM     24  C   UNL     1       3.272   0.207   0.599  1.00  0.00     0.251 C 
ATOM     25  O   UNL     1       3.910   0.882  -0.250  1.00  0.00    -0.269 OA
ATOM     26  N   UNL     1       3.817   0.136   1.903  1.00  0.00    -0.348 N 
BRANCH  26  27
ATOM     27  C   UNL     1       5.208   0.341   2.220  1.00  0.00     0.043 C 
BRANCH  27  28
ATOM     28  C   UNL     1       6.041   0.631   1.032  1.00  0.00    -0.027 A 
ATOM     29  C   UNL     1       6.633  -0.447   0.387  1.00  0.00    -0.057 A 
ATOM     30  C   UNL     1       6.765   1.817   1.057  1.00  0.00    -0.039 A 
ATOM     31  C   UNL     1       7.431  -0.154  -0.708  1.00  0.00    -0.060 A 
ATOM     32  C   UNL     1       7.646   2.100   0.023  1.00  0.00     0.041 A 
ATOM     33  C   UNL     1       7.765   1.151  -0.985  1.00  0.00    -0.044 A 
ATOM     34  Cl  UNL     1       8.428   3.668  -0.134  1.00  0.00    -0.084 Cl
ENDBRANCH  27  28
ENDBRANCH  26  27
ENDBRANCH   3  24
TORSDOF 6

