
     RDKit          3D

 33 35  0  0  0  0  0  0  0  0999 V2000
    7.0646    4.8486    1.1072 C   0  0  0  0  0  0  0  0  0  0  0  0
    7.4396    3.3992    0.9140 C   0  0  0  0  0  0  0  0  0  0  0  0
    6.3413    2.5449    1.1281 O   0  0  0  0  0  0  0  0  0  0  0  0
    6.3073    1.2391    0.6965 C   0  0  0  0  0  0  0  0  0  0  0  0
    7.4158    0.6825    0.4327 O   0  0  0  0  0  0  0  0  0  0  0  0
    5.0508    0.5320    0.4551 C   0  0  0  0  0  0  0  0  0  0  0  0
    5.0877   -0.6941   -0.1904 C   0  0  0  0  0  0  0  0  0  0  0  0
    3.8835   -1.2732   -0.5691 C   0  0  0  0  0  0  0  0  0  0  0  0
    3.7701   -2.0720   -1.7680 C   0  0  0  0  0  0  0  0  0  0  0  0
    3.6463   -2.7060   -2.7399 N   0  0  0  0  0  0  0  0  0  0  0  0
    2.7346   -0.6421   -0.1553 C   0  0  0  0  0  0  0  0  0  0  0  0
    1.4965   -1.3624   -0.1679 N   0  0  0  0  0  0  0  0  0  0  0  0
    0.7070   -1.2445   -1.3615 C   0  0  0  0  0  0  0  0  0  0  0  0
   -0.5981   -1.9727   -1.3129 C   0  0  0  0  0  0  0  0  0  0  0  0
   -1.1733   -2.1261    0.0627 C   0  0  0  0  0  0  0  0  0  0  0  0
   -2.6381   -1.9244    0.1146 C   0  0  0  0  0  0  0  0  0  0  0  0
   -3.1624   -1.7537    1.2495 O   0  0  0  0  0  0  0  0  0  0  0  0
   -3.5169   -2.3863   -0.9155 N   0  0  0  0  0  0  0  0  0  0  0  0
   -5.0575   -1.6085   -1.0584 S   0  0  0  0  0  0  0  0  0  0  0  0
   -6.1226   -2.5940   -1.4287 O   0  0  0  0  0  0  0  0  0  0  0  0
   -4.9215   -0.5147   -2.0660 O   0  0  0  0  0  0  0  0  0  0  0  0
   -5.4685   -0.8321    0.4976 C   0  0  0  0  0  0  0  0  0  0  0  0
   -6.1139    0.4931    0.2421 C   0  0  0  0  0  0  0  0  0  0  0  0
   -7.2034    0.8236    1.0343 C   0  0  0  0  0  0  0  0  0  0  0  0
   -7.6459    2.1214    1.0680 C   0  0  0  0  0  0  0  0  0  0  0  0
   -6.8310    3.1177    0.5740 C   0  0  0  0  0  0  0  0  0  0  0  0
   -5.8197    2.7719   -0.3010 C   0  0  0  0  0  0  0  0  0  0  0  0
   -5.5337    1.4580   -0.5517 C   0  0  0  0  0  0  0  0  0  0  0  0
   -0.5296   -1.1972    1.0771 C   0  0  0  0  0  0  0  0  0  0  0  0
    0.9299   -1.6231    1.1527 C   0  0  0  0  0  0  0  0  0  0  0  0
    2.7387    0.5099    0.5577 N   0  0  0  0  0  0  0  0  0  0  0  0
    3.8714    1.2477    0.5995 C   0  0  0  0  0  0  0  0  0  0  0  0
    3.8510    2.7374    0.4896 C   0  0  0  0  0  0  0  0  0  0  0  0
  1  2  1  0
  2  3  1  0
  3  4  1  0
  4  5  2  0
  4  6  1  0
  6  7  2  0
  7  8  1  0
  8  9  1  0
  9 10  3  0
  8 11  2  0
 11 12  1  0
 12 13  1  0
 13 14  1  0
 14 15  1  0
 15 16  1  0
 16 17  2  0
 16 18  1  0
 18 19  1  0
 19 20  2  0
 19 21  2  0
 19 22  1  0
 22 23  1  0
 23 24  2  0
 24 25  1  0
 25 26  2  0
 26 27  1  0
 27 28  2  0
 15 29  1  0
 29 30  1  0
 11 31  1  0
 31 32  2  0
 32 33  1  0
 32  6  1  0
 30 12  1  0
 28 23  1  0
M  END
>  <zinc_id>  (1) 
ZINC000096283078

>  <smiles>  (1) 
CCOC(=O)c1cc(C#N)c(N2CCC(C(=O)NS(=O)(=O)Cc3ccccc3)CC2)nc1C

$$$$
