REMARK SMILES CS(=O)c1ccc(-c2nc(-c3ccncc3)c(-c3ccc(F)cc3)[nH]2)cc1
REMARK SMILES IDX 4 1 5 2 6 3 7 4 26 5 27 6 2 7 1 8 3 9 8 10 9 11 25 12 10 13
REMARK SMILES IDX 17 14 11 15 12 16 16 17 13 18 15 19 14 20 18 21 19 22 24 23
REMARK SMILES IDX 20 24 23 25 21 26 22 27
REMARK H PARENT
REMARK Flexibility Score: inf
ROOT
ATOM      1  C   UNL     1       4.952  -1.007   0.090  1.00  0.00     0.039 A 
ATOM      2  C   UNL     1       4.107  -1.975   0.619  1.00  0.00    -0.045 A 
ATOM      3  C   UNL     1       2.735  -1.846   0.440  1.00  0.00    -0.050 A 
ATOM      4  C   UNL     1       2.197  -0.904  -0.429  1.00  0.00     0.017 A 
ATOM      5  C   UNL     1       3.104  -0.287  -1.280  1.00  0.00    -0.050 A 
ATOM      6  C   UNL     1       4.470  -0.346  -1.032  1.00  0.00    -0.045 A 
ENDROOT
BRANCH   1   7
ATOM      7  S   UNL     1       6.382  -0.425   0.978  1.00  0.00     0.050 S 
ATOM      8  C   UNL     1       7.875  -1.260   0.462  1.00  0.00     0.017 C 
ATOM      9  O   UNL     1       6.498   1.081   0.940  1.00  0.00    -0.255 OA
ENDBRANCH   1   7
BRANCH   4  10
ATOM     10  C   UNL     1       0.870  -0.339  -0.187  1.00  0.00     0.138 A 
ATOM     11  N   UNL     1       0.414   0.900  -0.422  1.00  0.00    -0.228 NA
ATOM     12  N   UNL     1      -0.046  -0.924   0.595  1.00  0.00    -0.337 N 
ATOM     13  C   UNL     1      -0.882   0.992  -0.035  1.00  0.00     0.097 A 
ATOM     14  C   UNL     1      -1.221  -0.269   0.435  1.00  0.00     0.074 A 
BRANCH  13  15
ATOM     15  C   UNL     1      -1.688   2.187   0.185  1.00  0.00     0.005 A 
ATOM     16  C   UNL     1      -1.008   3.367   0.448  1.00  0.00    -0.034 A 
ATOM     17  C   UNL     1      -3.015   2.289  -0.131  1.00  0.00    -0.034 A 
ATOM     18  C   UNL     1      -1.608   4.585   0.161  1.00  0.00     0.027 A 
ATOM     19  C   UNL     1      -3.628   3.529  -0.206  1.00  0.00     0.027 A 
ATOM     20  N   UNL     1      -2.946   4.656   0.042  1.00  0.00    -0.265 NA
ENDBRANCH  13  15
BRANCH  14  21
ATOM     21  C   UNL     1      -2.578  -0.826   0.494  1.00  0.00     0.000 A 
ATOM     22  C   UNL     1      -3.324  -0.982  -0.668  1.00  0.00    -0.050 A 
ATOM     23  C   UNL     1      -2.844  -1.758   1.490  1.00  0.00    -0.050 A 
ATOM     24  C   UNL     1      -4.538  -1.613  -0.612  1.00  0.00    -0.026 A 
ATOM     25  C   UNL     1      -3.838  -2.716   1.338  1.00  0.00    -0.026 A 
ATOM     26  C   UNL     1      -4.623  -2.743   0.191  1.00  0.00     0.123 A 
ATOM     27  F   UNL     1      -5.815  -3.365   0.236  1.00  0.00    -0.207 F 
ENDBRANCH  14  21
ENDBRANCH   4  10
TORSDOF 4

