REMARK SMILES COc1cccc(-c2cc(=O)c3ccccc3o2)c1N
REMARK SMILES IDX 3 1 4 2 5 3 6 4 7 5 19 6 20 7 2 8 1 9 8 10 9 11 18 12 10 13
REMARK SMILES IDX 17 14 11 15 12 16 16 17 13 18 15 19 14 20
REMARK H PARENT
REMARK Flexibility Score: inf
ROOT
ATOM      1  C   UNL     1       3.566   0.018  -0.079  1.00  0.00     0.142 A 
ATOM      2  C   UNL     1       4.066  -1.271   0.064  1.00  0.00    -0.018 A 
ATOM      3  C   UNL     1       3.151  -2.316   0.020  1.00  0.00    -0.058 A 
ATOM      4  C   UNL     1       1.830  -2.037  -0.217  1.00  0.00    -0.049 A 
ATOM      5  C   UNL     1       1.336  -0.741  -0.146  1.00  0.00     0.044 A 
ATOM      6  C   UNL     1       2.218   0.258   0.158  1.00  0.00     0.085 A 
ATOM      7  N   UNL     1       1.742   1.453   0.755  1.00  0.00    -0.395 N 
ENDROOT
BRANCH   1   8
ATOM      8  O   UNL     1       4.453   1.051   0.168  1.00  0.00    -0.495 OA
ATOM      9  C   UNL     1       4.137   2.317  -0.362  1.00  0.00     0.078 C 
ENDBRANCH   1   8
BRANCH   5  10
ATOM     10  C   UNL     1      -0.083  -0.484  -0.351  1.00  0.00     0.140 A 
ATOM     11  C   UNL     1      -0.902  -1.528  -0.764  1.00  0.00     0.030 A 
ATOM     12  O   UNL     1      -0.625   0.614   0.128  1.00  0.00    -0.456 OA
ATOM     13  C   UNL     1      -2.280  -1.354  -0.807  1.00  0.00     0.193 A 
ATOM     14  C   UNL     1      -1.926   0.800   0.202  1.00  0.00     0.138 A 
ATOM     15  O   UNL     1      -3.073  -2.343  -0.758  1.00  0.00    -0.289 OA
ATOM     16  C   UNL     1      -2.713  -0.055  -0.560  1.00  0.00     0.065 A 
ATOM     17  C   UNL     1      -2.469   1.877   0.893  1.00  0.00    -0.019 A 
ATOM     18  C   UNL     1      -4.061   0.224  -0.721  1.00  0.00    -0.047 A 
ATOM     19  C   UNL     1      -3.833   2.068   0.752  1.00  0.00    -0.059 A 
ATOM     20  C   UNL     1      -4.533   1.451  -0.273  1.00  0.00    -0.061 A 
ENDBRANCH   5  10
TORSDOF 2

