REMARK SMILES Nc1ncnc2c1c(-c1cccc(OCc3ccccc3)c1)cn2[C@H]1C[C@H](CN2CCC2)C1
REMARK SMILES IDX 1 1 2 2 3 3 4 4 5 5 6 6 7 7 8 8 23 9 24 10 9 11 10 12 22 13
REMARK SMILES IDX 11 14 13 15 12 16 14 17 15 18 16 19 17 20 21 21 18 22 20 23
REMARK SMILES IDX 19 24 25 25 26 26 33 27 27 28 28 29 29 30 30 31 32 32 31 33
REMARK H PARENT
REMARK Flexibility Score: inf
ROOT
ATOM      1  N   UNL     1      -0.064  -1.131   2.470  1.00  0.00    -0.383 N 
ATOM      2  C   UNL     1      -1.212  -0.612   1.932  1.00  0.00     0.136 A 
ATOM      3  N   UNL     1      -2.386  -0.486   2.563  1.00  0.00    -0.219 NA
ATOM      4  C   UNL     1      -3.313   0.382   2.087  1.00  0.00     0.120 A 
ATOM      5  N   UNL     1      -3.234   0.913   0.841  1.00  0.00    -0.218 NA
ATOM      6  C   UNL     1      -2.252   0.392   0.060  1.00  0.00     0.146 A 
ATOM      7  C   UNL     1      -1.081   0.031   0.717  1.00  0.00     0.069 A 
ATOM      8  C   UNL     1      -0.031   0.289  -0.159  1.00  0.00     0.013 A 
ATOM      9  C   UNL     1      -0.666   0.590  -1.343  1.00  0.00     0.015 A 
ATOM     10  N   UNL     1      -1.997   0.292  -1.242  1.00  0.00    -0.329 N 
ENDROOT
BRANCH   8  11
ATOM     11  C   UNL     1       1.286   0.639   0.373  1.00  0.00    -0.012 A 
ATOM     12  C   UNL     1       1.420   1.720   1.238  1.00  0.00    -0.054 A 
ATOM     13  C   UNL     1       2.256  -0.353   0.423  1.00  0.00    -0.012 A 
ATOM     14  C   UNL     1       2.477   1.887   2.086  1.00  0.00    -0.058 A 
ATOM     15  C   UNL     1       3.333  -0.202   1.280  1.00  0.00     0.120 A 
ATOM     16  C   UNL     1       3.297   0.775   2.243  1.00  0.00    -0.020 A 
BRANCH  15  17
ATOM     17  O   UNL     1       4.206  -1.258   1.412  1.00  0.00    -0.489 OA
BRANCH  17  18
ATOM     18  C   UNL     1       4.650  -1.891   0.237  1.00  0.00     0.113 C 
BRANCH  18  19
ATOM     19  C   UNL     1       5.690  -1.048  -0.428  1.00  0.00    -0.011 A 
ATOM     20  C   UNL     1       6.994  -1.496  -0.302  1.00  0.00    -0.056 A 
ATOM     21  C   UNL     1       5.447   0.307  -0.554  1.00  0.00    -0.056 A 
ATOM     22  C   UNL     1       7.967  -0.701  -0.887  1.00  0.00    -0.062 A 
ATOM     23  C   UNL     1       6.444   1.173  -0.989  1.00  0.00    -0.062 A 
ATOM     24  C   UNL     1       7.734   0.660  -0.930  1.00  0.00    -0.062 A 
ENDBRANCH  18  19
ENDBRANCH  17  18
ENDBRANCH  15  17
ENDBRANCH   8  11
BRANCH  10  25
ATOM     25  C   UNL     1      -2.896   0.988  -2.335  1.00  0.00     0.036 C 
ATOM     26  C   UNL     1      -3.319  -0.419  -3.055  1.00  0.00    -0.028 C 
ATOM     27  C   UNL     1      -4.319   0.884  -1.538  1.00  0.00    -0.028 C 
ATOM     28  C   UNL     1      -4.149  -0.720  -1.694  1.00  0.00    -0.025 C 
BRANCH  28  29
ATOM     29  C   UNL     1      -5.584  -0.875  -2.461  1.00  0.00     0.001 C 
BRANCH  29  30
ATOM     30  N   UNL     1      -6.616  -0.845  -1.507  1.00  0.00    -0.303 NA
ATOM     31  C   UNL     1      -6.860   0.310  -0.720  1.00  0.00    -0.001 C 
ATOM     32  C   UNL     1      -6.570  -1.701  -0.366  1.00  0.00    -0.001 C 
ATOM     33  C   UNL     1      -6.652  -0.488   0.549  1.00  0.00    -0.028 C 
ENDBRANCH  29  30
ENDBRANCH  28  29
ENDBRANCH  10  25
TORSDOF 7

