
     RDKit          3D

 25 27  0  0  0  0  0  0  0  0999 V2000
   -1.0936    4.4633   -2.8662 C   0  0  0  0  0  0  0  0  0  0  0  0
   -1.1638    3.8392   -1.5542 N   0  0  0  0  0  0  0  0  0  0  0  0
   -0.4012    4.6506   -0.6211 C   0  0  0  0  0  0  0  0  0  0  0  0
   -0.4921    2.5629   -1.6694 C   0  0  0  0  0  0  0  0  0  0  0  0
   -0.0446    2.1726   -0.2651 C   0  0  0  0  0  0  0  0  0  0  0  0
   -1.2162    1.4809    0.3553 C   0  0  0  0  0  0  0  0  0  0  0  0
   -1.1012    0.2469    0.7885 C   0  0  0  0  0  0  0  0  0  0  0  0
   -2.3125   -0.5804    0.6958 C   0  0  0  0  0  0  0  0  0  0  0  0
   -3.3427    0.0331   -0.0066 C   0  0  0  0  0  0  0  0  0  0  0  0
   -4.1854   -0.7134   -0.8229 C   0  0  0  0  0  0  0  0  0  0  0  0
   -4.0679   -2.0972   -0.8100 C   0  0  0  0  0  0  0  0  0  0  0  0
   -3.4329   -2.6639    0.2878 C   0  0  0  0  0  0  0  0  0  0  0  0
   -2.3773   -1.9624    0.8449 C   0  0  0  0  0  0  0  0  0  0  0  0
   -1.5003   -2.7642    1.7228 C   0  0  0  0  0  0  0  0  0  0  0  0
   -0.1307   -2.6434    1.4113 O   0  0  0  0  0  0  0  0  0  0  0  0
    0.6196   -1.4650    1.4771 C   0  0  0  0  0  0  0  0  0  0  0  0
    1.9366   -1.6411    1.8065 C   0  0  0  0  0  0  0  0  0  0  0  0
    2.8877   -0.8663    1.1533 C   0  0  0  0  0  0  0  0  0  0  0  0
    2.5361    0.1297    0.2512 C   0  0  0  0  0  0  0  0  0  0  0  0
    3.4273    0.4678   -0.9001 C   0  0  0  0  0  0  0  0  0  0  0  0
    4.5269   -0.5456   -0.9693 C   0  0  0  0  0  0  0  0  0  0  0  0
    5.2241   -0.7227    0.0755 O   0  0  0  0  0  0  0  0  0  0  0  0
    4.2098   -1.7201   -1.6592 O   0  0  0  0  0  0  0  0  0  0  0  0
    1.2156    0.5581    0.3031 C   0  0  0  0  0  0  0  0  0  0  0  0
    0.2788   -0.2193    0.9710 C   0  0  0  0  0  0  0  0  0  0  0  0
  1  2  1  0
  2  3  1  0
  2  4  1  0
  4  5  1  0
  5  6  1  0
  6  7  2  0
  7  8  1  0
  8  9  2  0
  9 10  1  0
 10 11  2  0
 11 12  1  0
 12 13  2  0
 13 14  1  0
 14 15  1  0
 15 16  1  0
 16 17  2  0
 17 18  1  0
 18 19  2  0
 19 20  1  0
 20 21  1  0
 21 22  2  0
 21 23  1  0
 19 24  1  0
 24 25  2  0
 25  7  1  0
 13  8  1  0
 25 16  1  0
M  END
>  <zinc_id>  (1) 
ZINC000000001850

>  <smiles>  (1) 
CN(C)CC/C=C1/c2ccccc2COc2ccc(CC(=O)O)cc21

$$$$
