REMARK SMILES NCC(=O)Nc1ccc(-n2nc(C(F)(F)F)cc2-c2ccc3c(ccc4ccccc43)c2)cc1
REMARK SMILES IDX 6 1 7 2 8 3 9 4 33 5 34 6 5 7 3 8 4 9 2 10 1 11 10 12 11 13
REMARK SMILES IDX 18 14 12 15 17 16 19 17 20 18 32 19 21 20 23 21 22 22 24 23
REMARK SMILES IDX 31 24 25 25 26 26 30 27 27 28 29 29 28 30 13 31 14 32 15 33
REMARK SMILES IDX 16 34
REMARK H PARENT
REMARK Flexibility Score: inf
ROOT
ATOM      1  C   UNL     1      -4.326   1.725  -0.209  1.00  0.00     0.041 A 
ATOM      2  C   UNL     1      -2.992   2.082  -0.321  1.00  0.00    -0.036 A 
ATOM      3  C   UNL     1      -1.996   1.117  -0.418  1.00  0.00    -0.034 A 
ATOM      4  C   UNL     1      -2.288  -0.193  -0.106  1.00  0.00     0.065 A 
ATOM      5  C   UNL     1      -3.637  -0.528  -0.118  1.00  0.00    -0.034 A 
ATOM      6  C   UNL     1      -4.631   0.392  -0.377  1.00  0.00    -0.036 A 
ENDROOT
BRANCH   1   7
ATOM      7  N   UNL     1      -5.373   2.673  -0.060  1.00  0.00    -0.325 N 
ATOM      8  C   UNL     1      -6.650   2.232   0.367  1.00  0.00     0.238 C 
ATOM      9  O   UNL     1      -7.086   1.143  -0.097  1.00  0.00    -0.273 OA
BRANCH   8  10
ATOM     10  C   UNL     1      -7.649   3.121   1.012  1.00  0.00     0.073 C 
ATOM     11  N   UNL     1      -7.071   3.767   2.173  1.00  0.00    -0.322 NA
ENDBRANCH   8  10
ENDBRANCH   1   7
BRANCH   4  12
ATOM     12  N   UNL     1      -1.287  -1.176   0.113  1.00  0.00    -0.233 N 
ATOM     13  N   UNL     1      -1.527  -2.434   0.406  1.00  0.00    -0.163 NA
ATOM     14  C   UNL     1      -0.027  -1.089  -0.322  1.00  0.00     0.075 A 
ATOM     15  C   UNL     1      -0.464  -3.212   0.142  1.00  0.00     0.167 A 
ATOM     16  C   UNL     1       0.446  -2.386  -0.479  1.00  0.00    -0.003 A 
BRANCH  14  17
ATOM     17  C   UNL     1       0.799   0.118  -0.190  1.00  0.00     0.001 A 
ATOM     18  C   UNL     1       1.298   0.533   1.038  1.00  0.00    -0.052 A 
ATOM     19  C   UNL     1       1.540   0.502  -1.302  1.00  0.00    -0.045 A 
ATOM     20  C   UNL     1       2.618   0.928   1.201  1.00  0.00    -0.053 A 
ATOM     21  C   UNL     1       2.787   1.095  -1.141  1.00  0.00    -0.017 A 
ATOM     22  C   UNL     1       3.435   1.081   0.089  1.00  0.00    -0.010 A 
ATOM     23  C   UNL     1       3.621   1.305  -2.233  1.00  0.00    -0.054 A 
ATOM     24  C   UNL     1       4.787   0.777   0.185  1.00  0.00    -0.011 A 
ATOM     25  C   UNL     1       4.984   1.520  -2.071  1.00  0.00    -0.054 A 
ATOM     26  C   UNL     1       5.589   1.214  -0.860  1.00  0.00    -0.018 A 
ATOM     27  C   UNL     1       5.380   0.383   1.368  1.00  0.00    -0.054 A 
ATOM     28  C   UNL     1       6.927   1.528  -0.677  1.00  0.00    -0.054 A 
ATOM     29  C   UNL     1       6.725   0.623   1.522  1.00  0.00    -0.062 A 
ATOM     30  C   UNL     1       7.464   1.327   0.585  1.00  0.00    -0.062 A 
ENDBRANCH  14  17
BRANCH  15  31
ATOM     31  C   UNL     1      -0.358  -4.685   0.264  1.00  0.00     0.435 C 
ATOM     32  F   UNL     1      -0.521  -5.296  -0.970  1.00  0.00    -0.164 F 
ATOM     33  F   UNL     1      -1.375  -5.132   1.071  1.00  0.00    -0.164 F 
ATOM     34  F   UNL     1       0.858  -5.056   0.785  1.00  0.00    -0.164 F 
ENDBRANCH  15  31
ENDBRANCH   4  12
TORSDOF 5

