REMARK SMILES C[C@@H]1C[C@H]2[C@@H]3CCC4=CC(=O)C=C[C@]4(C)[C@@]3(F)[C@@H](O)C[C@]2(C)[C@@]1(O)C(=O)CO
REMARK SMILES IDX 25 1 26 2 23 3 1 4 2 5 3 6 4 7 21 8 24 9 5 10 20 11 22 12
REMARK SMILES IDX 6 13 16 14 18 15 7 16 14 17 17 18 19 19 8 20 13 21 15 22
REMARK SMILES IDX 9 23 12 24 10 25 11 26 27 27 28 28
REMARK H PARENT
REMARK Flexibility Score: inf
ROOT
ATOM      1  C   UNL     1      -4.064  -0.134   0.276  1.00  0.00     0.190 C 
ATOM      2  O   UNL     1      -5.014  -0.796   0.698  1.00  0.00    -0.294 OA
ENDROOT
BRANCH   1   3
ATOM      3  C   UNL     1      -2.884  -0.932  -0.209  1.00  0.00     0.133 C 
ATOM      4  C   UNL     1      -2.752  -2.534  -2.042  1.00  0.00    -0.059 C 
ATOM      5  C   UNL     1      -2.980  -0.929  -1.831  1.00  0.00    -0.007 C 
ATOM      6  C   UNL     1      -1.410  -0.612  -2.131  1.00  0.00    -0.044 C 
ATOM      7  C   UNL     1      -0.762  -1.138  -0.756  1.00  0.00    -0.026 C 
ATOM      8  C   UNL     1      -1.689  -0.104   0.065  1.00  0.00     0.010 C 
ATOM      9  O   UNL     1      -2.931  -2.180   0.286  1.00  0.00    -0.381 OA
ATOM     10  C   UNL     1       0.445   0.047  -0.815  1.00  0.00     0.000 C 
ATOM     11  C   UNL     1      -1.256  -0.231   1.388  1.00  0.00    -0.015 C 
ATOM     12  C   UNL     1      -1.836   1.161  -0.672  1.00  0.00    -0.056 C 
ATOM     13  C   UNL     1       1.429  -0.928  -1.636  1.00  0.00    -0.043 C 
ATOM     14  C   UNL     1       1.062  -0.292   0.621  1.00  0.00     0.152 C 
ATOM     15  C   UNL     1       0.170   0.493   1.740  1.00  0.00     0.090 C 
ATOM     16  C   UNL     1       2.592  -1.415  -0.985  1.00  0.00    -0.030 C 
ATOM     17  C   UNL     1       2.314   0.447   0.503  1.00  0.00     0.044 C 
ATOM     18  F   UNL     1       0.992  -1.559   0.939  1.00  0.00    -0.239 F 
ATOM     19  O   UNL     1      -0.076   1.706   0.862  1.00  0.00    -0.390 OA
ATOM     20  C   UNL     1       3.281  -0.607   0.033  1.00  0.00    -0.053 C 
ATOM     21  C   UNL     1       2.820   1.219   1.630  1.00  0.00    -0.067 C 
ATOM     22  C   UNL     1       2.386   1.446  -0.659  1.00  0.00    -0.049 C 
ATOM     23  C   UNL     1       4.524  -0.162  -0.037  1.00  0.00    -0.014 C 
ATOM     24  C   UNL     1       3.991   1.824   1.386  1.00  0.00    -0.018 C 
ATOM     25  C   UNL     1       4.899   1.187   0.420  1.00  0.00     0.178 C 
ATOM     26  O   UNL     1       5.911   1.785  -0.056  1.00  0.00    -0.290 OA
ENDBRANCH   1   3
BRANCH   1  27
ATOM     27  C   UNL     1      -4.516   1.063  -0.514  1.00  0.00     0.105 C 
ATOM     28  O   UNL     1      -4.645   2.173   0.339  1.00  0.00    -0.388 OA
ENDBRANCH   1  27
TORSDOF 2

