
     RDKit          3D

 30 33  0  0  0  0  0  0  0  0999 V2000
    6.1133   -2.3779   -0.0554 C   0  0  0  0  0  0  0  0  0  0  0  0
    6.9430   -1.3930   -0.7559 C   0  0  0  0  0  0  0  0  0  0  0  0
    6.6135   -1.5554   -2.2351 C   0  0  0  0  0  0  0  0  0  0  0  0
    6.5630   -0.0630   -0.4127 O   0  0  0  0  0  0  0  0  0  0  0  0
    5.2005    0.2354   -0.4513 C   0  0  0  0  0  0  0  0  0  0  0  0
    4.3758   -0.1558   -1.4939 C   0  0  0  0  0  0  0  0  0  0  0  0
    3.0257   -0.3542   -1.2313 C   0  0  0  0  0  0  0  0  0  0  0  0
    2.6191   -0.3049    0.0964 C   0  0  0  0  0  0  0  0  0  0  0  0
    1.2030   -0.5922    0.3408 C   0  0  0  0  0  0  0  0  0  0  0  0
    0.1770   -0.3113   -0.4986 N   0  0  0  0  0  0  0  0  0  0  0  0
   -0.8359    0.0622    0.2825 C   0  0  0  0  0  0  0  0  0  0  0  0
   -2.0797    0.7711   -0.0424 C   0  0  0  0  0  0  0  0  0  0  0  0
   -2.1338    2.1561   -0.0209 C   0  0  0  0  0  0  0  0  0  0  0  0
   -3.3360    2.7438    0.3483 C   0  0  0  0  0  0  0  0  0  0  0  0
   -4.4059    1.9602    0.7565 C   0  0  0  0  0  0  0  0  0  0  0  0
   -4.4476    0.6454    0.2947 C   0  0  0  0  0  0  0  0  0  0  0  0
   -3.3015    0.1216   -0.1659 C   0  0  0  0  0  0  0  0  0  0  0  0
   -3.5059   -1.3476   -0.3577 C   0  0  0  0  0  0  0  0  0  0  0  0
   -3.9055   -1.5692    1.0781 C   0  0  0  0  0  0  0  0  0  0  0  0
   -5.2135   -0.5313    1.1338 C   0  0  2  0  0  0  0  0  0  0  0  0
   -5.8396   -1.1511   -0.2031 N   0  0  0  0  0  0  0  0  0  0  0  0
   -7.2080   -1.3220    0.2495 C   0  0  0  0  0  0  0  0  0  0  0  0
   -8.1773   -0.3740   -0.3800 C   0  0  0  0  0  0  0  0  0  0  0  0
   -7.7432    0.9612   -0.3420 O   0  0  0  0  0  0  0  0  0  0  0  0
   -0.6057   -0.5374    1.4766 N   0  0  0  0  0  0  0  0  0  0  0  0
    0.6432   -0.9158    1.4917 O   0  0  0  0  0  0  0  0  0  0  0  0
    3.2847    0.6095    0.9023 C   0  0  0  0  0  0  0  0  0  0  0  0
    4.5962    0.8791    0.6155 C   0  0  0  0  0  0  0  0  0  0  0  0
    5.3679    1.6223    1.5553 C   0  0  0  0  0  0  0  0  0  0  0  0
    6.0132    2.0884    2.4052 N   0  0  0  0  0  0  0  0  0  0  0  0
  1  2  1  0
  2  3  1  0
  2  4  1  0
  4  5  1  0
  5  6  2  0
  6  7  1  0
  7  8  2  0
  8  9  1  0
  9 10  2  0
 10 11  1  0
 11 12  1  0
 12 13  2  0
 13 14  1  0
 14 15  2  0
 15 16  1  0
 16 17  2  0
 17 18  1  0
 18 19  1  0
 19 20  1  0
 20 21  1  6
 21 22  1  0
 22 23  1  0
 23 24  1  0
 11 25  2  0
 25 26  1  0
  8 27  1  0
 27 28  2  0
 28 29  1  0
 29 30  3  0
 28  5  1  0
 26  9  1  0
 17 12  1  0
 20 16  1  0
M  END
>  <zinc_id>  (1) 
ZINC000116109867

>  <smiles>  (1) 
CC(C)Oc1ccc(-c2nc(-c3cccc4c3CC[C@@H]4NCCO)no2)cc1C#N

$$$$
