REMARK SMILES FC(F)(F)c1cc(NC(=S)Nc2ccc(Br)cc2-c2nnn[nH]2)cc(C(F)(F)F)c1
REMARK SMILES IDX 9 1 10 2 8 3 7 4 5 5 6 6 30 7 25 8 24 9 2 10 1 11 3 12 4 13
REMARK SMILES IDX 26 14 27 15 28 16 29 17 11 18 12 19 13 20 18 21 14 22 17 23
REMARK SMILES IDX 15 24 16 25 19 26 20 27 23 28 21 29 22 30
REMARK H PARENT
REMARK Flexibility Score: inf
ROOT
ATOM      1  C   UNL     1       0.419  -0.910   0.757  1.00  0.00     0.175 C 
ATOM      2  S   UNL     1       0.000  -1.330   2.267  1.00  0.00    -0.040 S 
ENDROOT
BRANCH   1   3
ATOM      3  N   UNL     1      -0.340  -1.413  -0.347  1.00  0.00    -0.332 N 
BRANCH   3   4
ATOM      4  C   UNL     1      -1.643  -0.857  -0.542  1.00  0.00     0.041 A 
ATOM      5  C   UNL     1      -3.800  -0.678   0.524  1.00  0.00     0.058 A 
ATOM      6  C   UNL     1      -2.675  -1.418   0.199  1.00  0.00    -0.026 A 
ATOM      7  C   UNL     1      -4.003   0.465  -0.225  1.00  0.00    -0.038 A 
ATOM      8  C   UNL     1      -2.912   1.142  -0.740  1.00  0.00     0.058 A 
ATOM      9  C   UNL     1      -1.694   0.518  -0.712  1.00  0.00    -0.026 A 
BRANCH   5  10
ATOM     10  C   UNL     1      -4.958  -1.277   1.256  1.00  0.00     0.416 C 
ATOM     11  F   UNL     1      -4.549  -2.406   1.928  1.00  0.00    -0.166 F 
ATOM     12  F   UNL     1      -5.462  -0.315   2.116  1.00  0.00    -0.166 F 
ATOM     13  F   UNL     1      -5.916  -1.614   0.317  1.00  0.00    -0.166 F 
ENDBRANCH   5  10
BRANCH   8  14
ATOM     14  C   UNL     1      -3.067   2.597  -1.034  1.00  0.00     0.416 C 
ATOM     15  F   UNL     1      -2.011   3.092  -1.757  1.00  0.00    -0.166 F 
ATOM     16  F   UNL     1      -4.240   2.708  -1.774  1.00  0.00    -0.166 F 
ATOM     17  F   UNL     1      -3.220   3.246   0.174  1.00  0.00    -0.166 F 
ENDBRANCH   8  14
ENDBRANCH   3   4
ENDBRANCH   1   3
BRANCH   1  18
ATOM     18  N   UNL     1       1.568  -0.126   0.446  1.00  0.00    -0.332 N 
BRANCH  18  19
ATOM     19  C   UNL     1       2.526  -0.738  -0.425  1.00  0.00     0.051 A 
ATOM     20  C   UNL     1       2.164  -1.263  -1.637  1.00  0.00    -0.037 A 
ATOM     21  C   UNL     1       3.868  -0.529  -0.133  1.00  0.00     0.045 A 
ATOM     22  C   UNL     1       3.110  -1.444  -2.636  1.00  0.00    -0.046 A 
ATOM     23  C   UNL     1       4.792  -0.792  -1.137  1.00  0.00    -0.035 A 
ATOM     24  C   UNL     1       4.424  -1.043  -2.441  1.00  0.00     0.018 A 
ATOM     25  Br  UNL     1       5.430  -0.420  -3.942  1.00  0.00    -0.051 Br
BRANCH  21  26
ATOM     26  C   UNL     1       4.250   0.188   1.091  1.00  0.00     0.181 A 
ATOM     27  N   UNL     1       5.277   1.071   1.127  1.00  0.00    -0.109 NA
ATOM     28  N   UNL     1       3.387   0.628   2.013  1.00  0.00    -0.239 N 
ATOM     29  N   UNL     1       5.215   1.599   2.346  1.00  0.00    -0.024 NA
ATOM     30  N   UNL     1       4.063   1.320   2.921  1.00  0.00    -0.048 NA
ENDBRANCH  21  26
ENDBRANCH  18  19
ENDBRANCH   1  18
TORSDOF 7

