REMARK SMILES Nc1cc(F)ccc1NC(=O)/C=C/c1cnn(C/C=C/c2ccccc2)c1
REMARK SMILES IDX 14 1 15 2 16 3 17 4 27 5 13 6 12 7 10 8 9 9 11 10 8 11 1 12
REMARK SMILES IDX 2 13 3 14 4 15 7 16 5 17 6 18 18 19 19 20 20 21 21 22 22 23
REMARK SMILES IDX 26 24 23 25 25 26 24 27
REMARK H PARENT
REMARK Flexibility Score: inf
ROOT
ATOM      1  C   UNL     1      -0.277   1.060   0.948  1.00  0.00     0.013 A 
ATOM      2  C   UNL     1      -0.865   2.281   1.255  1.00  0.00     0.056 A 
ATOM      3  N   UNL     1      -2.153   2.194   0.843  1.00  0.00    -0.181 NA
ATOM      4  N   UNL     1      -2.214   1.299  -0.142  1.00  0.00    -0.268 N 
ATOM      5  C   UNL     1      -1.220   0.426   0.149  1.00  0.00     0.032 A 
ENDROOT
BRANCH   1   6
ATOM      6  C   UNL     1       1.183   0.906   0.920  1.00  0.00    -0.046 C 
ATOM      7  C   UNL     1       1.752   0.021   0.139  1.00  0.00     0.004 C 
BRANCH   7   8
ATOM      8  C   UNL     1       3.003   0.219  -0.575  1.00  0.00     0.248 C 
ATOM      9  N   UNL     1       4.119   0.915  -0.041  1.00  0.00    -0.321 N 
ATOM     10  O   UNL     1       3.264  -0.636  -1.475  1.00  0.00    -0.270 OA
BRANCH   9  11
ATOM     11  C   UNL     1       5.446   0.374  -0.046  1.00  0.00     0.064 A 
ATOM     12  N   UNL     1       5.993   1.403   2.058  1.00  0.00    -0.397 N 
ATOM     13  C   UNL     1       6.162   0.316   1.143  1.00  0.00     0.058 A 
ATOM     14  C   UNL     1       6.941  -0.786   1.470  1.00  0.00    -0.001 A 
ATOM     15  C   UNL     1       7.063  -1.850   0.585  1.00  0.00     0.125 A 
ATOM     16  C   UNL     1       5.833  -0.536  -1.021  1.00  0.00    -0.033 A 
ATOM     17  F   UNL     1       7.101  -3.123   1.075  1.00  0.00    -0.207 F 
ATOM     18  C   UNL     1       6.705  -1.577  -0.728  1.00  0.00    -0.024 A 
ENDBRANCH   9  11
ENDBRANCH   7   8
ENDBRANCH   1   6
BRANCH   4  19
ATOM     19  C   UNL     1      -3.177   1.245  -1.233  1.00  0.00     0.059 C 
BRANCH  19  20
ATOM     20  C   UNL     1      -4.256   0.271  -0.991  1.00  0.00    -0.063 C 
ATOM     21  C   UNL     1      -4.876   0.112   0.167  1.00  0.00    -0.057 C 
BRANCH  21  22
ATOM     22  C   UNL     1      -6.245  -0.414   0.090  1.00  0.00    -0.026 A 
ATOM     23  C   UNL     1      -6.597  -1.642   0.620  1.00  0.00    -0.055 A 
ATOM     24  C   UNL     1      -7.253   0.432  -0.314  1.00  0.00    -0.055 A 
ATOM     25  C   UNL     1      -7.920  -1.960   0.836  1.00  0.00    -0.062 A 
ATOM     26  C   UNL     1      -8.563   0.164   0.062  1.00  0.00    -0.062 A 
ATOM     27  C   UNL     1      -8.950  -1.114   0.447  1.00  0.00    -0.062 A 
ENDBRANCH  21  22
ENDBRANCH  19  20
ENDBRANCH   4  19
TORSDOF 6

