REMARK SMILES O=C(NCc1cccc(O)c1)Nc1nc(-c2ccncc2)cs1
REMARK SMILES IDX 1 1 2 2 3 3 12 4 4 5 5 6 6 7 11 8 7 9 9 10 8 11 10 12 13 13
REMARK SMILES IDX 14 14 23 15 15 16 22 17 16 18 17 19 21 20 18 21 20 22 19 23
REMARK H PARENT
REMARK Flexibility Score: inf
ROOT
ATOM      1  O   UNL     1      -0.202   0.698  -1.065  1.00  0.00    -0.248 OA
ATOM      2  C   UNL     1      -0.882  -0.230  -0.558  1.00  0.00     0.321 C 
ATOM      3  N   UNL     1      -1.725  -0.953  -1.426  1.00  0.00    -0.334 N 
ATOM      4  N   UNL     1      -0.662  -0.521   0.806  1.00  0.00    -0.284 N 
ENDROOT
BRANCH   3   5
ATOM      5  C   UNL     1      -2.591  -0.195  -2.326  1.00  0.00     0.045 C 
BRANCH   5   6
ATOM      6  C   UNL     1      -3.941  -0.165  -1.684  1.00  0.00    -0.025 A 
ATOM      7  C   UNL     1      -4.833   0.823  -2.067  1.00  0.00    -0.057 A 
ATOM      8  C   UNL     1      -4.236  -0.834  -0.520  1.00  0.00    -0.015 A 
ATOM      9  C   UNL     1      -5.802   1.304  -1.196  1.00  0.00    -0.058 A 
ATOM     10  C   UNL     1      -5.142  -0.351   0.417  1.00  0.00     0.115 A 
ATOM     11  C   UNL     1      -5.992   0.641  -0.006  1.00  0.00    -0.020 A 
ATOM     12  O   UNL     1      -5.361  -1.132   1.542  1.00  0.00    -0.508 OA
ENDBRANCH   5   6
ENDBRANCH   3   5
BRANCH   4  13
ATOM     13  C   UNL     1       0.682  -0.564   1.306  1.00  0.00     0.191 A 
ATOM     14  N   UNL     1       1.701   0.289   1.039  1.00  0.00    -0.220 NA
ATOM     15  S   UNL     1       1.340  -1.404   2.651  1.00  0.00    -0.105 S 
ATOM     16  C   UNL     1       2.890  -0.287   1.211  1.00  0.00     0.084 A 
ATOM     17  C   UNL     1       2.975  -0.915   2.451  1.00  0.00     0.021 A 
BRANCH  16  18
ATOM     18  C   UNL     1       4.090   0.162   0.488  1.00  0.00     0.004 A 
ATOM     19  C   UNL     1       4.297  -0.069  -0.843  1.00  0.00    -0.034 A 
ATOM     20  C   UNL     1       5.111   0.728   1.219  1.00  0.00    -0.034 A 
ATOM     21  C   UNL     1       5.487   0.323  -1.445  1.00  0.00     0.027 A 
ATOM     22  C   UNL     1       6.348   0.956   0.672  1.00  0.00     0.027 A 
ATOM     23  N   UNL     1       6.448   0.843  -0.667  1.00  0.00    -0.265 NA
ENDBRANCH  16  18
ENDBRANCH   4  13
TORSDOF 4

