REMARK SMILES O=C(NCCCN1CCC2(CC1)OCc1ccccc12)[C@H]1CCCN1Cc1ccccc1
REMARK SMILES IDX 1 1 2 2 3 3 21 4 22 5 25 6 23 7 24 8 26 9 27 10 28 11 32 12
REMARK SMILES IDX 29 13 31 14 30 15 4 16 5 17 6 18 7 19 8 20 12 21 9 22 11 23
REMARK SMILES IDX 10 24 13 25 20 26 14 27 15 28 19 29 16 30 18 31 17 32
REMARK H PARENT
REMARK Flexibility Score: inf
ROOT
ATOM      1  O   UNL     1       2.441   0.239  -0.692  1.00  0.00    -0.273 OA
ATOM      2  C   UNL     1       2.482  -1.009  -0.513  1.00  0.00     0.237 C 
ATOM      3  N   UNL     1       1.147  -1.542  -0.461  1.00  0.00    -0.355 N 
ENDROOT
BRANCH   2   4
ATOM      4  C   UNL     1       3.264  -1.157   0.925  1.00  0.00     0.089 C 
ATOM      5  C   UNL     1       3.020  -2.803   0.986  1.00  0.00    -0.027 C 
ATOM      6  N   UNL     1       4.705  -1.296   0.245  1.00  0.00    -0.288 NA
ATOM      7  C   UNL     1       3.756  -3.312  -0.157  1.00  0.00    -0.038 C 
ATOM      8  C   UNL     1       4.406  -2.186  -0.836  1.00  0.00    -0.001 C 
BRANCH   6   9
ATOM      9  C   UNL     1       4.910  -0.047  -0.425  1.00  0.00     0.024 C 
BRANCH   9  10
ATOM     10  C   UNL     1       5.841   0.894   0.164  1.00  0.00    -0.034 A 
ATOM     11  C   UNL     1       6.867   0.618   1.029  1.00  0.00    -0.058 A 
ATOM     12  C   UNL     1       5.801   2.170  -0.393  1.00  0.00    -0.058 A 
ATOM     13  C   UNL     1       7.943   1.488   1.073  1.00  0.00    -0.062 A 
ATOM     14  C   UNL     1       6.913   2.990  -0.445  1.00  0.00    -0.062 A 
ATOM     15  C   UNL     1       8.011   2.641   0.302  1.00  0.00    -0.062 A 
ENDBRANCH   9  10
ENDBRANCH   6   9
ENDBRANCH   2   4
BRANCH   3  16
ATOM     16  C   UNL     1      -0.028  -0.756  -0.832  1.00  0.00     0.019 C 
BRANCH  16  17
ATOM     17  C   UNL     1      -0.744  -0.431   0.475  1.00  0.00    -0.023 C 
BRANCH  17  18
ATOM     18  C   UNL     1      -1.080   1.057   0.487  1.00  0.00    -0.000 C 
BRANCH  18  19
ATOM     19  N   UNL     1      -2.463   1.122   0.014  1.00  0.00    -0.303 NA
ATOM     20  C   UNL     1      -3.250   0.302   0.858  1.00  0.00     0.001 C 
ATOM     21  C   UNL     1      -2.449   0.883  -1.367  1.00  0.00     0.001 C 
ATOM     22  C   UNL     1      -3.636  -1.039   0.251  1.00  0.00    -0.007 C 
ATOM     23  C   UNL     1      -3.345  -0.120  -1.951  1.00  0.00    -0.007 C 
ATOM     24  C   UNL     1      -4.381  -0.680  -1.030  1.00  0.00     0.096 C 
ATOM     25  O   UNL     1      -5.089  -1.728  -1.556  1.00  0.00    -0.365 OA
ATOM     26  C   UNL     1      -5.413   0.307  -0.668  1.00  0.00    -0.011 A 
ATOM     27  C   UNL     1      -6.317  -1.794  -0.919  1.00  0.00     0.073 C 
ATOM     28  C   UNL     1      -6.545  -0.438  -0.364  1.00  0.00    -0.016 A 
ATOM     29  C   UNL     1      -5.572   1.684  -0.748  1.00  0.00    -0.056 A 
ATOM     30  C   UNL     1      -7.491   0.176   0.412  1.00  0.00    -0.056 A 
ATOM     31  C   UNL     1      -6.325   2.252   0.274  1.00  0.00    -0.062 A 
ATOM     32  C   UNL     1      -7.378   1.514   0.771  1.00  0.00    -0.062 A 
ENDBRANCH  18  19
ENDBRANCH  17  18
ENDBRANCH  16  17
ENDBRANCH   3  16
TORSDOF 7

