REMARK SMILES CC(C)[C@H]1c2ccc(F)cc2CC[C@@]1(CCN(C)CCCc1nc2ccccc2[nH]1)OC(=O)C1CC1
REMARK SMILES IDX 16 1 15 2 14 3 4 4 5 5 6 6 11 7 13 8 7 9 10 10 12 11 8 12
REMARK SMILES IDX 9 13 2 14 1 15 3 16 31 17 32 18 33 19 34 20 35 21 36 22
REMARK SMILES IDX 17 23 18 24 19 25 20 26 21 27 22 28 23 29 30 30 24 31 29 32
REMARK SMILES IDX 25 33 28 34 26 35 27 36
REMARK H PARENT
REMARK Flexibility Score: inf
ROOT
ATOM      1  C   UNL     1       0.363  -0.351  -0.047  1.00  0.00     0.002 C 
ENDROOT
BRANCH   1   2
ATOM      2  C   UNL     1      -0.868  -0.110  -0.895  1.00  0.00     0.001 C 
BRANCH   2   3
ATOM      3  C   UNL     1      -2.131  -0.089  -0.066  1.00  0.00     0.121 C 
ATOM      4  C   UNL     1      -2.236   1.503   0.366  1.00  0.00     0.027 C 
ATOM      5  C   UNL     1      -3.579   1.313   1.252  1.00  0.00    -0.037 A 
ATOM      6  C   UNL     1      -4.147   2.479   1.703  1.00  0.00    -0.055 A 
ATOM      7  C   UNL     1      -4.159   0.116   1.361  1.00  0.00    -0.041 A 
ATOM      8  C   UNL     1      -2.002  -0.860   1.206  1.00  0.00    -0.008 C 
ATOM      9  C   UNL     1      -5.440   2.397   2.210  1.00  0.00    -0.026 A 
ATOM     10  C   UNL     1      -5.527   0.111   1.617  1.00  0.00    -0.023 A 
ATOM     11  C   UNL     1      -3.420  -1.145   1.691  1.00  0.00    -0.024 C 
ATOM     12  C   UNL     1      -6.215   1.293   1.872  1.00  0.00     0.123 A 
ATOM     13  F   UNL     1      -7.559   1.396   1.652  1.00  0.00    -0.207 F 
BRANCH   4  14
ATOM     14  C   UNL     1      -3.110   1.950  -0.975  1.00  0.00    -0.036 C 
ATOM     15  C   UNL     1      -2.470   1.676  -1.912  1.00  0.00    -0.062 C 
ATOM     16  C   UNL     1      -3.194   3.455  -0.749  1.00  0.00    -0.062 C 
ENDBRANCH   4  14
BRANCH   3  17
ATOM     17  O   UNL     1      -3.196  -0.405  -0.872  1.00  0.00    -0.458 OA
BRANCH  17  18
ATOM     18  C   UNL     1      -3.076  -1.475  -1.718  1.00  0.00     0.309 C 
ATOM     19  O   UNL     1      -1.988  -2.116  -1.828  1.00  0.00    -0.252 OA
BRANCH  18  20
ATOM     20  C   UNL     1      -4.253  -2.036  -2.427  1.00  0.00     0.057 C 
ATOM     21  C   UNL     1      -4.429  -3.553  -2.137  1.00  0.00    -0.039 C 
ATOM     22  C   UNL     1      -5.396  -2.521  -1.632  1.00  0.00    -0.039 C 
ENDBRANCH  18  20
ENDBRANCH  17  18
ENDBRANCH   3  17
ENDBRANCH   2   3
ENDBRANCH   1   2
BRANCH   1  23
ATOM     23  N   UNL     1       1.533   0.213  -0.669  1.00  0.00    -0.306 NA
ATOM     24  C   UNL     1       1.272   1.422  -1.405  1.00  0.00    -0.013 C 
BRANCH  23  25
ATOM     25  C   UNL     1       2.276  -0.725  -1.469  1.00  0.00    -0.002 C 
BRANCH  25  26
ATOM     26  C   UNL     1       3.249  -1.430  -0.565  1.00  0.00    -0.033 C 
BRANCH  26  27
ATOM     27  C   UNL     1       3.572  -0.499   0.583  1.00  0.00     0.007 C 
BRANCH  27  28
ATOM     28  C   UNL     1       5.053  -0.395   0.690  1.00  0.00     0.107 A 
ATOM     29  N   UNL     1       5.919  -1.415   0.534  1.00  0.00    -0.233 NA
ATOM     30  N   UNL     1       5.784   0.731   0.748  1.00  0.00    -0.342 N 
ATOM     31  C   UNL     1       7.166  -0.929   0.342  1.00  0.00     0.089 A 
ATOM     32  C   UNL     1       7.064   0.452   0.410  1.00  0.00     0.065 A 
ATOM     33  C   UNL     1       8.240  -1.500  -0.316  1.00  0.00    -0.034 A 
ATOM     34  C   UNL     1       8.205   1.181   0.177  1.00  0.00    -0.036 A 
ATOM     35  C   UNL     1       9.330  -0.725  -0.697  1.00  0.00    -0.060 A 
ATOM     36  C   UNL     1       9.368   0.593  -0.271  1.00  0.00    -0.060 A 
ENDBRANCH  27  28
ENDBRANCH  26  27
ENDBRANCH  25  26
ENDBRANCH  23  25
ENDBRANCH   1  23
TORSDOF 11

