REMARK SMILES COc1ccc(-c2coc3cc(O)ccc3c2=O)cc1
REMARK SMILES IDX 3 1 4 2 5 3 6 4 19 5 20 6 2 7 1 8 7 9 8 10 17 11 9 12 16 13
REMARK SMILES IDX 18 14 10 15 15 16 11 17 14 18 12 19 13 20
REMARK H PARENT
REMARK Flexibility Score: inf
ROOT
ATOM      1  C   UNL     1       4.158   0.402   0.086  1.00  0.00     0.118 A 
ATOM      2  C   UNL     1       3.756  -0.557  -0.836  1.00  0.00    -0.019 A 
ATOM      3  C   UNL     1       2.406  -0.879  -0.922  1.00  0.00    -0.050 A 
ATOM      4  C   UNL     1       1.511  -0.569   0.095  1.00  0.00    -0.011 A 
ATOM      5  C   UNL     1       2.078   0.017   1.220  1.00  0.00    -0.050 A 
ATOM      6  C   UNL     1       3.394   0.447   1.245  1.00  0.00    -0.019 A 
ENDROOT
BRANCH   1   7
ATOM      7  O   UNL     1       5.504   0.724   0.119  1.00  0.00    -0.497 OA
ATOM      8  C   UNL     1       6.499  -0.188  -0.279  1.00  0.00     0.078 C 
ENDBRANCH   1   7
BRANCH   4   9
ATOM      9  C   UNL     1       0.124  -0.250  -0.248  1.00  0.00     0.065 A 
ATOM     10  C   UNL     1      -0.148   0.856  -1.046  1.00  0.00     0.103 A 
ATOM     11  C   UNL     1      -0.936  -1.074   0.035  1.00  0.00     0.200 A 
ATOM     12  O   UNL     1      -1.281   1.511  -0.907  1.00  0.00    -0.463 OA
ATOM     13  C   UNL     1      -2.203  -0.533  -0.153  1.00  0.00     0.066 A 
ATOM     14  O   UNL     1      -0.728  -2.110   0.699  1.00  0.00    -0.288 OA
ATOM     15  C   UNL     1      -2.306   0.820  -0.447  1.00  0.00     0.141 A 
ATOM     16  C   UNL     1      -3.293  -1.295   0.218  1.00  0.00    -0.044 A 
ATOM     17  C   UNL     1      -3.492   1.481  -0.158  1.00  0.00     0.023 A 
ATOM     18  C   UNL     1      -4.533  -0.683   0.108  1.00  0.00    -0.019 A 
ATOM     19  C   UNL     1      -4.624   0.688  -0.092  1.00  0.00     0.119 A 
ATOM     20  O   UNL     1      -5.889   1.192  -0.408  1.00  0.00    -0.508 OA
ENDBRANCH   4   9
TORSDOF 2

