REMARK SMILES C/C=C1\NC(=O)[C@H]2CSSCC/C=C\[C@H](CC(=O)N[C@H](C(C)C)C(=O)N2)OC(=O)[C@H](C(C)C)NC1=O
REMARK SMILES IDX 24 1 25 2 26 3 7 4 5 5 4 6 6 7 3 8 1 9 2 10 35 11 34 12
REMARK SMILES IDX 36 13 30 14 31 16 32 17 33 18 8 19 9 20 10 21 11 22 12 23
REMARK SMILES IDX 20 25 19 26 17 27 18 28 16 29 15 30 14 31 13 32 27 34 28 35
REMARK SMILES IDX 29 36 21 38 22 39 23 40
REMARK H PARENT
REMARK Flexibility Score: 150.00
ROOT
ATOM      1  C   UNL     1       2.864   1.315  -0.315  1.00  0.00     0.243 C 
ATOM      2  O   UNL     1       3.818   2.120  -0.546  1.00  0.00    -0.273 OA
ATOM      3  N   UNL     1       1.860   1.520   0.594  1.00  0.00    -0.342 N 
ENDROOT
BRANCH   3   4
ATOM      4  C   UNL     1       0.549   2.333   0.271  1.00  0.00     0.118 C 
BRANCH   4   5
ATOM      5  C   UNL     1      -0.468   1.280   0.918  1.00  0.00     0.247 C 
ATOM      6  N   UNL     1      -1.865   1.481   0.634  1.00  0.00    -0.320 N 
ATOM      7  O   UNL     1       0.010   0.309   1.518  1.00  0.00    -0.272 OA
BRANCH   6   8
ATOM      8  C   UNL     1      -2.135   2.078  -0.642  1.00  0.00     0.102 C 
ATOM      9  C   UNL     1      -3.602   3.716   0.270  1.00  0.00    -0.044 C 
ATOM     10  C   UNL     1      -3.039   2.987  -0.910  1.00  0.00    -0.058 C 
BRANCH   8  11
ATOM     11  C   UNL     1      -1.153   1.555  -1.606  1.00  0.00     0.268 C 
ATOM     12  N   UNL     1      -0.931   0.172  -1.440  1.00  0.00    -0.337 N 
ATOM     13  O   UNL     1      -0.941   2.225  -2.665  1.00  0.00    -0.268 OA
BRANCH  12  14
ATOM     14  C   UNL     1      -1.995  -0.752  -0.716  1.00  0.00     0.129 CG1
ATOM     15  G   UNL     1      -1.509  -2.039  -1.536  1.00  0.00     0.000 G1
BRANCH  14  16
ATOM     16  C   UNL     1      -3.221  -0.378  -1.742  1.00  0.00    -0.016 C 
ATOM     17  C   UNL     1      -4.307  -1.361  -1.509  1.00  0.00    -0.060 C 
ATOM     18  C   UNL     1      -2.669  -0.323  -3.115  1.00  0.00    -0.060 C 
ENDBRANCH  14  16
ENDBRANCH  12  14
ENDBRANCH   8  11
ENDBRANCH   6   8
ENDBRANCH   4   5
BRANCH   4  19
ATOM     19  C   UNL     1       0.614   3.107   1.732  1.00  0.00     0.033 C 
BRANCH  19  20
ATOM     20  S   UNL     1       0.964   1.930   3.031  1.00  0.00    -0.091 SA
BRANCH  20  21
ATOM     21  S   UNL     1      -0.614   1.222   4.194  1.00  0.00    -0.094 SA
BRANCH  21  22
ATOM     22  C   UNL     1      -0.760  -0.548   4.498  1.00  0.00     0.007 C 
BRANCH  22  23
ATOM     23  C   UNL     1      -0.348  -1.441   3.374  1.00  0.00    -0.025 CG0
ATOM     24  G   UNL     1      -1.374  -2.009   2.521  1.00  0.00     0.000 G0
ENDBRANCH  22  23
ENDBRANCH  21  22
ENDBRANCH  20  21
ENDBRANCH  19  20
ENDBRANCH   4  19
ENDBRANCH   3   4
BRANCH   1  25
ATOM     25  C   UNL     1       2.865  -0.044  -1.187  1.00  0.00     0.110 C 
BRANCH  25  26
ATOM     26  N   UNL     1       2.752  -0.976   0.080  1.00  0.00    -0.344 N 
ATOM     27  C   UNL     1       1.876  -2.103  -0.030  1.00  0.00     0.224 C 
ATOM     28  O   UNL     1       2.289  -3.268  -0.335  1.00  0.00    -0.275 OA
BRANCH  27  29
ATOM     29  C   UNL     1       0.863  -2.199   1.061  1.00  0.00     0.067 C 
BRANCH  29  30
ATOM     30  C   UNL     1      -0.410  -3.059   0.458  1.00  0.00     0.129 C 
BRANCH  30  31
ATOM     31  C   UNL     1      -1.475  -2.108   1.223  1.00  0.00    -0.048 C 
ATOM     32  C   UNL     1      -1.374  -2.009   2.521  1.00  0.00    -0.084 CG0
ATOM     33  G   UNL     1      -0.348  -1.441   3.374  1.00  0.00     0.000 G0
ENDBRANCH  30  31
BRANCH  30  34
ATOM     34  O   UNL     1      -0.370  -2.324  -0.893  1.00  0.00    -0.456 OA
BRANCH  34  35
ATOM     35  C   UNL     1      -1.509  -2.039  -1.536  1.00  0.00     0.329 CG1
ATOM     36  O   UNL     1      -2.252  -2.647  -2.276  1.00  0.00    -0.250 OA
ATOM     37  G   UNL     1      -1.995  -0.752  -0.716  1.00  0.00     0.000 G1
ENDBRANCH  34  35
ENDBRANCH  30  34
ENDBRANCH  29  30
ENDBRANCH  27  29
ENDBRANCH  25  26
BRANCH  25  38
ATOM     38  C   UNL     1       4.504  -0.198  -1.213  1.00  0.00    -0.018 C 
ATOM     39  C   UNL     1       4.826  -1.643  -1.013  1.00  0.00    -0.060 C 
ATOM     40  C   UNL     1       4.782   0.070  -2.689  1.00  0.00    -0.060 C 
ENDBRANCH  25  38
ENDBRANCH   1  25
TORSDOF 2

