
     RDKit          3D

 21 23  0  0  0  0  0  0  0  0999 V2000
   -3.3119    2.7626    0.6882 C   0  0  0  0  0  0  0  0  0  0  0  0
   -4.0247    1.5444    0.6994 O   0  0  0  0  0  0  0  0  0  0  0  0
   -3.4310    0.3326    0.3341 C   0  0  0  0  0  0  0  0  0  0  0  0
   -3.0957   -0.5943    1.3120 C   0  0  0  0  0  0  0  0  0  0  0  0
   -1.9472   -1.3656    1.2305 C   0  0  0  0  0  0  0  0  0  0  0  0
   -1.4088   -1.9778    2.3118 N   0  0  0  0  0  0  0  0  0  0  0  0
   -0.0763   -1.9607    2.5580 C   0  0  0  0  0  0  0  0  0  0  0  0
    0.7791   -1.5304    1.6012 N   0  0  0  0  0  0  0  0  0  0  0  0
    0.2863   -1.3111    0.3603 C   0  0  0  0  0  0  0  0  0  0  0  0
    1.3180   -1.2392   -1.0849 S   0  0  0  0  0  0  0  0  0  0  0  0
    2.7648   -0.2216   -0.7695 C   0  0  0  0  0  0  0  0  0  0  0  0
    2.8906    1.1181   -0.9430 N   0  0  0  0  0  0  0  0  0  0  0  0
    3.9128    1.6048   -0.2937 N   0  0  0  0  0  0  0  0  0  0  0  0
    5.0649    0.9492   -0.5829 C   0  0  0  0  0  0  0  0  0  0  0  0
    6.4588    1.4119   -0.2864 C   0  0  0  0  0  0  0  0  0  0  0  0
    4.4309   -0.6438   -0.7210 S   0  0  0  0  0  0  0  0  0  0  0  0
   -1.0841   -1.2067    0.1536 C   0  0  0  0  0  0  0  0  0  0  0  0
   -1.6126   -0.5598   -0.9530 C   0  0  0  0  0  0  0  0  0  0  0  0
   -2.7601    0.2178   -0.8777 C   0  0  0  0  0  0  0  0  0  0  0  0
   -3.0257    1.2051   -1.8315 O   0  0  0  0  0  0  0  0  0  0  0  0
   -2.1281    1.4643   -2.9055 C   0  0  0  0  0  0  0  0  0  0  0  0
  1  2  1  0
  2  3  1  0
  3  4  2  0
  4  5  1  0
  5  6  2  0
  6  7  1  0
  7  8  2  0
  8  9  1  0
  9 10  1  0
 10 11  1  0
 11 12  2  0
 12 13  1  0
 13 14  2  0
 14 15  1  0
 14 16  1  0
  9 17  2  0
 17 18  1  0
 18 19  2  0
 19 20  1  0
 20 21  1  0
 19  3  1  0
 17  5  1  0
 16 11  1  0
M  END
>  <zinc_id>  (1) 
ZINC000072315513

>  <smiles>  (1) 
COc1cc2ncnc(Sc3nnc(C)s3)c2cc1OC

$$$$
