REMARK SMILES O=C(O)/C=C/c1ccc(Cn2ccnc2)cc1
REMARK SMILES IDX 6 1 7 2 8 3 9 4 16 5 17 6 5 7 4 8 2 9 1 10 3 11 10 12 11 13
REMARK SMILES IDX 12 14 15 15 13 16 14 17
REMARK H PARENT
REMARK Flexibility Score: inf
ROOT
ATOM      1  C   UNL     1      -1.330  -0.223  -0.575  1.00  0.00    -0.025 A 
ATOM      2  C   UNL     1      -0.797   1.049  -0.744  1.00  0.00    -0.055 A 
ATOM      3  C   UNL     1       0.407   1.418  -0.196  1.00  0.00    -0.057 A 
ATOM      4  C   UNL     1       0.986   0.636   0.781  1.00  0.00    -0.028 A 
ATOM      5  C   UNL     1       0.415  -0.573   1.077  1.00  0.00    -0.057 A 
ATOM      6  C   UNL     1      -0.753  -0.959   0.454  1.00  0.00    -0.055 A 
ENDROOT
BRANCH   1   7
ATOM      7  C   UNL     1      -2.783  -0.321  -0.762  1.00  0.00    -0.048 C 
ATOM      8  C   UNL     1      -3.595  -0.818   0.143  1.00  0.00     0.024 C 
BRANCH   8   9
ATOM      9  C   UNL     1      -4.857  -0.178   0.536  1.00  0.00     0.328 C 
ATOM     10  O   UNL     1      -5.812  -0.978   0.776  1.00  0.00    -0.247 OA
ATOM     11  O   UNL     1      -4.883   0.999   1.289  1.00  0.00    -0.478 OA
ENDBRANCH   8   9
ENDBRANCH   1   7
BRANCH   4  12
ATOM     12  C   UNL     1       2.411   0.953   1.109  1.00  0.00     0.048 C 
BRANCH  12  13
ATOM     13  N   UNL     1       3.282   0.242   0.180  1.00  0.00    -0.333 N 
ATOM     14  C   UNL     1       4.066  -0.785   0.584  1.00  0.00     0.024 A 
ATOM     15  C   UNL     1       3.584   0.574  -1.100  1.00  0.00     0.095 A 
ATOM     16  C   UNL     1       4.849  -1.075  -0.525  1.00  0.00     0.045 A 
ATOM     17  N   UNL     1       4.809   0.037  -1.300  1.00  0.00    -0.245 NA
ENDBRANCH  12  13
ENDBRANCH   4  12
TORSDOF 4

