
     RDKit          3D

 26 28  0  0  0  0  0  0  0  0999 V2000
    7.7038    0.1462    0.0579 N   0  0  0  0  0  0  0  0  0  0  0  0
    6.9726   -0.7022   -0.6036 C   0  0  0  0  0  0  0  0  0  0  0  0
    7.4836   -2.0254   -0.7604 N   0  0  0  0  0  0  0  0  0  0  0  0
    5.5182   -0.5117   -0.6603 C   0  0  0  0  0  0  0  0  0  0  0  0
    4.9486    0.2714   -1.6435 C   0  0  0  0  0  0  0  0  0  0  0  0
    3.6364    0.7061   -1.5046 C   0  0  0  0  0  0  0  0  0  0  0  0
    2.9560    0.6111   -0.3038 C   0  0  0  0  0  0  0  0  0  0  0  0
    1.5778    0.7879   -0.3444 C   0  0  0  0  0  0  0  0  0  0  0  0
    0.8349    0.4707    0.7653 C   0  0  0  0  0  0  0  0  0  0  0  0
   -0.5337    0.5790    0.8540 O   0  0  0  0  0  0  0  0  0  0  0  0
   -1.3058    1.4883    0.1659 C   0  0  0  0  0  0  0  0  0  0  0  0
   -0.7710    2.1399   -0.7568 O   0  0  0  0  0  0  0  0  0  0  0  0
   -2.7420    1.1975    0.0772 C   0  0  0  0  0  0  0  0  0  0  0  0
   -3.4578    0.7298    1.1696 C   0  0  0  0  0  0  0  0  0  0  0  0
   -4.6099   -0.0311    1.0290 C   0  0  0  0  0  0  0  0  0  0  0  0
   -4.8980   -0.4977   -0.2478 C   0  0  0  0  0  0  0  0  0  0  0  0
   -5.7454   -1.6221   -0.4614 N   0  0  0  0  0  0  0  0  0  0  0  0
   -6.9919   -1.4606   -0.1331 C   0  0  0  0  0  0  0  0  0  0  0  0
   -7.7538   -2.5811    0.2601 N   0  0  0  0  0  0  0  0  0  0  0  0
   -7.6037   -0.1684   -0.1527 N   0  0  0  0  0  0  0  0  0  0  0  0
   -4.4902    0.3332   -1.2853 C   0  0  0  0  0  0  0  0  0  0  0  0
   -3.4261    1.2129   -1.1275 C   0  0  0  0  0  0  0  0  0  0  0  0
    1.4901   -0.0509    1.8757 C   0  0  0  0  0  0  0  0  0  0  0  0
    2.8439   -0.2623    1.8827 C   0  0  0  0  0  0  0  0  0  0  0  0
    3.5260   -0.1897    0.6739 C   0  0  0  0  0  0  0  0  0  0  0  0
    4.8375   -0.5707    0.5447 C   0  0  0  0  0  0  0  0  0  0  0  0
  1  2  2  0
  2  3  1  0
  2  4  1  0
  4  5  2  0
  5  6  1  0
  6  7  2  0
  7  8  1  0
  8  9  2  0
  9 10  1  0
 10 11  1  0
 11 12  2  0
 11 13  1  0
 13 14  2  0
 14 15  1  0
 15 16  2  0
 16 17  1  0
 17 18  2  3
 18 19  1  0
 18 20  1  0
 16 21  1  0
 21 22  2  0
  9 23  1  0
 23 24  2  0
 24 25  1  0
 25 26  2  0
 26  4  1  0
 25  7  1  0
 22 13  1  0
M  END
>  <zinc_id>  (1) 
ZINC000003874467

>  <smiles>  (1) 
N=C(N)c1ccc2cc(OC(=O)c3ccc(N=C(N)N)cc3)ccc2c1

$$$$
