REMARK SMILES CC(C)Oc1ccc(Cc2ccc(NC3=NCCN3)cc2)cc1
REMARK SMILES IDX 5 1 6 2 7 3 8 4 22 5 23 6 4 7 2 8 1 9 3 10 9 11 10 12 11 13
REMARK SMILES IDX 21 14 12 15 20 16 13 17 14 18 15 19 16 20 19 21 17 22 18 23
REMARK H PARENT
REMARK Flexibility Score: inf
ROOT
ATOM      1  C   UNL     1       4.118   0.911  -0.890  1.00  0.00     0.119 A 
ATOM      2  C   UNL     1       4.145  -0.434  -1.226  1.00  0.00    -0.020 A 
ATOM      3  C   UNL     1       3.028  -1.246  -1.113  1.00  0.00    -0.055 A 
ATOM      4  C   UNL     1       1.984  -0.776  -0.347  1.00  0.00    -0.043 A 
ATOM      5  C   UNL     1       1.862   0.592  -0.201  1.00  0.00    -0.055 A 
ATOM      6  C   UNL     1       2.862   1.450  -0.643  1.00  0.00    -0.020 A 
ENDROOT
BRANCH   1   7
ATOM      7  O   UNL     1       5.289   1.597  -0.550  1.00  0.00    -0.491 OA
BRANCH   7   8
ATOM      8  C   UNL     1       6.501   0.917  -0.329  1.00  0.00     0.093 C 
ATOM      9  C   UNL     1       6.350  -0.217   0.674  1.00  0.00    -0.028 C 
ATOM     10  C   UNL     1       7.071   0.394  -1.618  1.00  0.00    -0.028 C 
ENDBRANCH   7   8
ENDBRANCH   1   7
BRANCH   4  11
ATOM     11  C   UNL     1       0.974  -1.634   0.302  1.00  0.00    -0.003 C 
BRANCH  11  12
ATOM     12  C   UNL     1      -0.340  -0.951   0.238  1.00  0.00    -0.043 A 
ATOM     13  C   UNL     1      -0.796  -0.445  -0.973  1.00  0.00    -0.057 A 
ATOM     14  C   UNL     1      -1.109  -0.668   1.342  1.00  0.00    -0.057 A 
ATOM     15  C   UNL     1      -2.151  -0.210  -1.174  1.00  0.00    -0.038 A 
ATOM     16  C   UNL     1      -2.467  -0.450   1.151  1.00  0.00    -0.038 A 
ATOM     17  C   UNL     1      -3.010  -0.503  -0.126  1.00  0.00     0.041 A 
BRANCH  17  18
ATOM     18  N   UNL     1      -4.426  -0.543  -0.333  1.00  0.00    -0.326 N 
ATOM     19  C   UNL     1      -5.267   0.174   0.553  1.00  0.00     0.195 C 
ATOM     20  N   UNL     1      -4.861   1.223   1.205  1.00  0.00    -0.251 NA
ATOM     21  N   UNL     1      -6.619  -0.042   0.917  1.00  0.00    -0.354 N 
ATOM     22  C   UNL     1      -5.966   2.064   1.577  1.00  0.00     0.060 C 
ATOM     23  C   UNL     1      -7.171   1.142   1.566  1.00  0.00     0.037 C 
ENDBRANCH  17  18
ENDBRANCH  11  12
ENDBRANCH   4  11
TORSDOF 5

