REMARK SMILES COc1cccc(-c2cc(F)ccc2[C@H]2Cc3nc(N)nc(C)c3C(=O)N2)n1
REMARK SMILES IDX 8 1 9 2 10 3 11 4 12 5 13 6 14 7 7 8 3 9 4 10 28 11 5 12
REMARK SMILES IDX 6 13 2 14 1 15 15 16 16 17 27 18 17 19 25 20 18 21 24 22
REMARK SMILES IDX 26 23 19 24 22 25 20 26 21 27 23 28
REMARK H PARENT
REMARK Flexibility Score: inf
ROOT
ATOM      1  C   UNL     1       1.869  -0.262   1.152  1.00  0.00     0.008 A 
ATOM      2  C   UNL     1       2.354  -0.134   2.448  1.00  0.00    -0.017 A 
ATOM      3  C   UNL     1       1.509   0.315   3.455  1.00  0.00     0.123 A 
ATOM      4  F   UNL     1       1.665  -0.134   4.733  1.00  0.00    -0.207 F 
ATOM      5  C   UNL     1       0.440   1.083   3.049  1.00  0.00    -0.026 A 
ATOM      6  C   UNL     1      -0.172   0.775   1.835  1.00  0.00    -0.053 A 
ATOM      7  C   UNL     1       0.606   0.195   0.904  1.00  0.00    -0.016 A 
ENDROOT
BRANCH   1   8
ATOM      8  C   UNL     1       2.710  -0.595   0.017  1.00  0.00     0.075 A 
ATOM      9  C   UNL     1       4.272  -0.019  -1.620  1.00  0.00     0.213 A 
ATOM     10  C   UNL     1       4.404  -1.371  -1.865  1.00  0.00     0.000 A 
ATOM     11  N   UNL     1       3.242   0.336  -0.814  1.00  0.00    -0.214 NA
ATOM     12  C   UNL     1       3.478  -2.285  -1.432  1.00  0.00    -0.055 A 
ATOM     13  C   UNL     1       2.477  -1.827  -0.585  1.00  0.00    -0.035 A 
BRANCH   9  14
ATOM     14  O   UNL     1       5.360   0.786  -1.874  1.00  0.00    -0.481 OA
ATOM     15  C   UNL     1       5.785   1.466  -2.273  1.00  0.00     0.079 C 
ENDBRANCH   9  14
ENDBRANCH   1   8
BRANCH   7  16
ATOM     16  C   UNL     1      -0.117  -0.480  -0.394  1.00  0.00     0.061 C 
ATOM     17  C   UNL     1      -1.427  -1.041   0.474  1.00  0.00     0.015 C 
ATOM     18  N   UNL     1      -0.743   0.915  -0.823  1.00  0.00    -0.345 N 
ATOM     19  C   UNL     1      -2.610  -0.778  -0.371  1.00  0.00     0.061 A 
ATOM     20  C   UNL     1      -1.868   1.423  -0.196  1.00  0.00     0.255 C 
ATOM     21  N   UNL     1      -3.619  -1.663  -0.569  1.00  0.00    -0.217 NA
ATOM     22  C   UNL     1      -3.045   0.541  -0.218  1.00  0.00     0.082 A 
ATOM     23  O   UNL     1      -2.081   2.663  -0.358  1.00  0.00    -0.269 OA
ATOM     24  C   UNL     1      -4.809  -1.237  -1.067  1.00  0.00     0.220 A 
ATOM     25  C   UNL     1      -4.338   0.935  -0.354  1.00  0.00     0.056 A 
ATOM     26  N   UNL     1      -5.481  -1.984  -2.092  1.00  0.00    -0.368 N 
ATOM     27  N   UNL     1      -5.253  -0.017  -0.669  1.00  0.00    -0.218 NA
ATOM     28  C   UNL     1      -4.609   2.393  -0.493  1.00  0.00    -0.021 C 
ENDBRANCH   7  16
TORSDOF 3

