
     RDKit          3D

 24 24  0  0  0  0  0  0  0  0999 V2000
   -5.9847    2.7952   -0.3576 C   0  0  0  0  0  0  0  0  0  0  0  0
   -6.4549    1.3757   -0.2539 C   0  0  0  0  0  0  0  0  0  0  0  0
   -5.4043    0.5996   -0.8333 O   0  0  0  0  0  0  0  0  0  0  0  0
   -4.4701    0.1380    0.0376 C   0  0  0  0  0  0  0  0  0  0  0  0
   -4.8096   -0.4965    1.0255 O   0  0  0  0  0  0  0  0  0  0  0  0
   -2.9838   -0.1450   -0.5596 C   0  0  1  0  0  0  0  0  0  0  0  0
   -2.4885    1.4121   -0.2251 O   0  0  0  0  0  0  0  0  0  0  0  0
   -2.1844    0.2165    0.8987 C   0  0  2  0  0  0  0  0  0  0  0  0
   -0.7074   -0.1236    0.3395 C   0  0  0  0  0  0  0  0  0  0  0  0
   -0.1998    0.4761   -0.5842 O   0  0  0  0  0  0  0  0  0  0  0  0
    0.2161   -0.6735    1.2106 N   0  0  0  0  0  0  0  0  0  0  0  0
    1.3203   -1.6288    0.6153 C   0  0  1  0  0  0  0  0  0  0  0  0
    0.8002   -1.5632   -0.9403 C   0  0  0  0  0  0  0  0  0  0  0  0
    0.0829   -2.7233   -1.3288 C   0  0  0  0  0  0  0  0  0  0  0  0
   -0.5524   -2.4035   -2.6553 C   0  0  0  0  0  0  0  0  0  0  0  0
   -0.6901   -3.5389   -0.4050 C   0  0  0  0  0  0  0  0  0  0  0  0
    2.3648   -0.4450    0.2959 C   0  0  0  0  0  0  0  0  0  0  0  0
    3.2052   -0.7514   -0.5905 O   0  0  0  0  0  0  0  0  0  0  0  0
    2.5722    0.6085    1.1295 N   0  0  0  0  0  0  0  0  0  0  0  0
    3.4339    1.6826    0.6381 C   0  0  0  0  0  0  0  0  0  0  0  0
    4.2965    1.2738   -0.5250 C   0  0  0  0  0  0  0  0  0  0  0  0
    5.7418    1.5972   -0.3054 C   0  0  0  0  0  0  0  0  0  0  0  0
    6.3507    0.5410    0.5702 C   0  0  0  0  0  0  0  0  0  0  0  0
    6.5453    1.7767   -1.5527 C   0  0  0  0  0  0  0  0  0  0  0  0
  1  2  1  0
  2  3  1  0
  3  4  1  0
  4  5  2  0
  6  4  1  1
  6  7  1  0
  7  8  1  0
  8  9  1  6
  9 10  2  0
  9 11  1  0
 12 11  1  1
 12 13  1  0
 13 14  1  0
 14 15  1  0
 14 16  1  0
 12 17  1  0
 17 18  2  0
 17 19  1  0
 19 20  1  0
 20 21  1  0
 21 22  1  0
 22 23  1  0
 22 24  1  0
  8  6  1  0
M  END
>  <zinc_id>  (1) 
ZINC000003913912

>  <smiles>  (1) 
CCOC(=O)[C@H]1O[C@@H]1C(=O)N[C@@H](CC(C)C)C(=O)NCCC(C)C

$$$$
