
     RDKit          3D

 20 21  0  0  0  0  0  0  0  0999 V2000
   -3.2985   -0.4800    2.6950 O   0  0  0  0  0  0  0  0  0  0  0  0
   -3.0909   -0.6411    1.4540 C   0  0  0  0  0  0  0  0  0  0  0  0
   -3.9383   -1.5609    0.8278 O   0  0  0  0  0  0  0  0  0  0  0  0
   -2.5153    0.4778    0.7006 C   0  0  0  0  0  0  0  0  0  0  0  0
   -2.9673    1.7670    0.7843 C   0  0  0  0  0  0  0  0  0  0  0  0
   -3.0350    2.5262   -0.3785 C   0  0  0  0  0  0  0  0  0  0  0  0
   -2.5094    2.0847   -1.5819 C   0  0  0  0  0  0  0  0  0  0  0  0
   -1.6797    0.9917   -1.5230 C   0  0  0  0  0  0  0  0  0  0  0  0
   -1.7415    0.1646   -0.4089 C   0  0  0  0  0  0  0  0  0  0  0  0
   -0.9589   -1.0248   -0.4339 N   0  0  0  0  0  0  0  0  0  0  0  0
    0.4252   -1.0288   -0.7951 C   0  0  0  0  0  0  0  0  0  0  0  0
    0.9943   -2.0528   -1.5352 C   0  0  0  0  0  0  0  0  0  0  0  0
    2.2859   -2.4654   -1.2520 C   0  0  0  0  0  0  0  0  0  0  0  0
    3.0905   -1.6490   -0.4672 C   0  0  0  0  0  0  0  0  0  0  0  0
    2.6073   -0.3840   -0.1585 C   0  0  0  0  0  0  0  0  0  0  0  0
    3.5383    0.6063    0.4672 C   0  0  0  0  0  0  0  0  0  0  0  0
    3.1490    1.8897    0.1047 F   0  0  0  0  0  0  0  0  0  0  0  0
    4.8323    0.3451    0.0273 F   0  0  0  0  0  0  0  0  0  0  0  0
    3.5235    0.4572    1.8511 F   0  0  0  0  0  0  0  0  0  0  0  0
    1.2884   -0.0236   -0.3779 C   0  0  0  0  0  0  0  0  0  0  0  0
  1  2  2  0
  2  3  1  0
  2  4  1  0
  4  5  2  0
  5  6  1  0
  6  7  2  0
  7  8  1  0
  8  9  2  0
  9 10  1  0
 10 11  1  0
 11 12  2  0
 12 13  1  0
 13 14  2  0
 14 15  1  0
 15 16  1  0
 16 17  1  0
 16 18  1  0
 16 19  1  0
 15 20  2  0
  9  4  1  0
 20 11  1  0
M  END
>  <zinc_id>  (1) 
ZINC000000086535

>  <smiles>  (1) 
O=C(O)c1ccccc1Nc1cccc(C(F)(F)F)c1

$$$$
