
     RDKit          3D

 22 23  0  0  0  0  0  0  0  0999 V2000
    6.2671   -0.7792    0.1933 C   0  0  0  0  0  0  0  0  0  0  0  0
    5.5721    0.1880   -0.6957 C   0  0  0  0  0  0  0  0  0  0  0  0
    6.2087    1.2480   -0.9732 O   0  0  0  0  0  0  0  0  0  0  0  0
    4.1245    0.2527   -0.8325 C   0  0  0  0  0  0  0  0  0  0  0  0
    3.3233   -0.8767   -0.9502 C   0  0  0  0  0  0  0  0  0  0  0  0
    2.0973   -0.8390   -0.2952 C   0  0  0  0  0  0  0  0  0  0  0  0
    1.4146    0.3530   -0.0818 C   0  0  0  0  0  0  0  0  0  0  0  0
    0.2387    0.3784    1.2233 S   0  0  0  0  0  0  0  0  0  0  0  0
    0.6662   -0.5682    2.3233 O   0  0  0  0  0  0  0  0  0  0  0  0
    0.1824    1.7527    1.8499 O   0  0  0  0  0  0  0  0  0  0  0  0
   -1.3415   -0.0010    0.6839 N   0  0  0  0  0  0  0  0  0  0  0  0
   -1.6374   -0.4070   -0.4948 C   0  0  0  0  0  0  0  0  0  0  0  0
   -0.6892   -0.1774   -1.4922 O   0  0  0  0  0  0  0  0  0  0  0  0
   -2.8350   -1.1237   -0.7739 N   0  0  0  0  0  0  0  0  0  0  0  0
   -3.7792   -1.3109    0.3189 C   0  0  0  0  0  0  0  0  0  0  0  0
   -5.1133   -1.8200   -0.1691 C   0  0  0  0  0  0  0  0  0  0  0  0
   -6.1480   -0.7517    0.1567 C   0  0  0  0  0  0  0  0  0  0  0  0
   -5.7401    0.4975   -0.6149 C   0  0  0  0  0  0  0  0  0  0  0  0
   -4.4289    1.0049   -0.0264 C   0  0  0  0  0  0  0  0  0  0  0  0
   -3.9120    0.0278    1.0247 C   0  0  0  0  0  0  0  0  0  0  0  0
    2.0974    1.4954   -0.4789 C   0  0  0  0  0  0  0  0  0  0  0  0
    3.4323    1.4566   -0.8616 C   0  0  0  0  0  0  0  0  0  0  0  0
  1  2  1  0
  2  3  2  0
  2  4  1  0
  4  5  2  0
  5  6  1  0
  6  7  2  0
  7  8  1  0
  8  9  2  0
  8 10  2  0
  8 11  1  0
 11 12  2  0
 12 13  1  0
 12 14  1  0
 14 15  1  0
 15 16  1  0
 16 17  1  0
 17 18  1  0
 18 19  1  0
 19 20  1  0
  7 21  1  0
 21 22  2  0
 22  4  1  0
 20 15  1  0
M  END
>  <zinc_id>  (1) 
ZINC000018067894

>  <smiles>  (1) 
CC(=O)c1ccc(S(=O)(=O)/N=C(\O)NC2CCCCC2)cc1

$$$$
