
     RDKit          3D

 29 32  0  0  0  0  0  0  0  0999 V2000
    4.3605    4.5606    0.1969 C   0  0  0  0  0  0  0  0  0  0  0  0
    4.8193    3.1343    0.3808 C   0  0  0  0  0  0  0  0  0  0  0  0
    3.9816    2.2096   -0.3045 O   0  0  0  0  0  0  0  0  0  0  0  0
    4.4755    0.9471   -0.5523 C   0  0  0  0  0  0  0  0  0  0  0  0
    5.7337    0.8496   -0.6640 O   0  0  0  0  0  0  0  0  0  0  0  0
    3.6719   -0.2698   -0.4807 C   0  0  0  0  0  0  0  0  0  0  0  0
    4.2046   -1.4086   -0.9827 N   0  0  0  0  0  0  0  0  0  0  0  0
    3.4388   -2.3455   -1.5911 C   0  0  0  0  0  0  0  0  0  0  0  0
    2.1322   -2.4314   -1.1569 C   0  0  0  0  0  0  0  0  0  0  0  0
    1.2138   -3.4275   -1.1734 N   0  0  0  0  0  0  0  0  0  0  0  0
    0.0515   -2.9715   -0.6735 C   0  0  0  0  0  0  0  0  0  0  0  0
   -1.0502   -3.5970   -0.1058 C   0  0  0  0  0  0  0  0  0  0  0  0
   -2.1370   -2.8285    0.2875 C   0  0  0  0  0  0  0  0  0  0  0  0
   -2.0619   -1.4596    0.0928 C   0  0  0  0  0  0  0  0  0  0  0  0
   -3.2806   -0.7770    0.1150 O   0  0  0  0  0  0  0  0  0  0  0  0
   -3.8730   -0.3301   -1.0924 C   0  0  0  0  0  0  0  0  0  0  0  0
   -4.7276    0.8686   -0.8497 C   0  0  0  0  0  0  0  0  0  0  0  0
   -4.2900    1.7799    0.1020 C   0  0  0  0  0  0  0  0  0  0  0  0
   -5.2378    2.6533    0.6147 C   0  0  0  0  0  0  0  0  0  0  0  0
   -6.5851    2.4867    0.3199 C   0  0  0  0  0  0  0  0  0  0  0  0
   -6.8659    1.8354   -0.8694 C   0  0  0  0  0  0  0  0  0  0  0  0
   -5.9074    1.0788   -1.5315 C   0  0  0  0  0  0  0  0  0  0  0  0
   -0.9211   -0.8396   -0.3948 C   0  0  0  0  0  0  0  0  0  0  0  0
    0.2028   -1.5940   -0.5702 C   0  0  0  0  0  0  0  0  0  0  0  0
    1.5574   -1.3103   -0.5718 C   0  0  0  0  0  0  0  0  0  0  0  0
    2.3019   -0.1754   -0.2719 C   0  0  0  0  0  0  0  0  0  0  0  0
    1.5897    1.1124   -0.2036 C   0  0  0  0  0  0  0  0  0  0  0  0
    1.4940    1.6174    1.0913 O   0  0  0  0  0  0  0  0  0  0  0  0
    1.7086    0.6321    2.0596 C   0  0  0  0  0  0  0  0  0  0  0  0
  1  2  1  0
  2  3  1  0
  3  4  1  0
  4  5  2  0
  4  6  1  0
  6  7  2  0
  7  8  1  0
  8  9  2  0
  9 10  1  0
 10 11  1  0
 11 12  2  0
 12 13  1  0
 13 14  2  0
 14 15  1  0
 15 16  1  0
 16 17  1  0
 17 18  2  0
 18 19  1  0
 19 20  2  0
 20 21  1  0
 21 22  2  0
 14 23  1  0
 23 24  2  0
 24 25  1  0
 25 26  2  0
 26 27  1  0
 27 28  1  0
 28 29  1  0
 26  6  1  0
 25  9  1  0
 24 11  1  0
 22 17  1  0
M  END
>  <zinc_id>  (1) 
ZINC000005857871

>  <smiles>  (1) 
CCOC(=O)c1ncc2[nH]c3ccc(OCc4ccccc4)cc3c2c1COC

$$$$
