
     RDKit          3D

 24 27  0  0  0  0  0  0  0  0999 V2000
    4.9032   -0.0034    2.4246 C   0  0  0  0  0  0  0  0  0  0  0  0
    4.4136   -0.6219    1.5370 C   0  0  0  0  0  0  0  0  0  0  0  0
    4.1491    0.1467    0.1458 C   0  0  1  0  0  0  0  0  0  0  0  0
    3.0831   -0.9748   -0.3884 C   0  0  0  0  0  0  0  0  0  0  0  0
    2.1314   -0.3013   -1.1974 N   0  0  0  0  0  0  0  0  0  0  0  0
    2.7839    0.9350   -1.6310 C   0  0  0  0  0  0  0  0  0  0  0  0
    2.4586    1.8562   -0.5208 C   0  0  0  0  0  0  0  0  0  0  0  0
    2.9859    1.1923    0.8842 C   0  0  1  0  0  0  0  0  0  0  0  0
    1.8285    0.0670    1.1034 C   0  0  0  0  0  0  0  0  0  0  0  0
    0.9440    0.1636   -0.2647 C   0  0  2  0  0  0  0  0  0  0  0  0
    0.3298   -1.4699   -0.2565 C   0  0  1  0  0  0  0  0  0  0  0  0
    1.1488   -1.9691    0.9327 O   0  0  0  0  0  0  0  0  0  0  0  0
   -0.9401   -1.1062    0.7178 C   0  0  0  0  0  0  0  0  0  0  0  0
   -1.3858   -2.2190    1.4269 C   0  0  0  0  0  0  0  0  0  0  0  0
   -2.7179   -2.5918    1.4039 C   0  0  0  0  0  0  0  0  0  0  0  0
   -3.5932   -2.0071    0.5523 N   0  0  0  0  0  0  0  0  0  0  0  0
   -3.2267   -0.9077   -0.1318 C   0  0  0  0  0  0  0  0  0  0  0  0
   -4.1448   -0.0930   -0.7849 C   0  0  0  0  0  0  0  0  0  0  0  0
   -3.8037    1.2393   -0.9680 C   0  0  0  0  0  0  0  0  0  0  0  0
   -2.5210    1.6991   -0.7010 C   0  0  0  0  0  0  0  0  0  0  0  0
   -2.3784    3.0284   -0.4353 O   0  0  0  0  0  0  0  0  0  0  0  0
   -3.0321    3.7223    0.6189 C   0  0  0  0  0  0  0  0  0  0  0  0
   -1.5249    0.7373   -0.5769 C   0  0  0  0  0  0  0  0  0  0  0  0
   -1.8914   -0.5219   -0.1155 C   0  0  0  0  0  0  0  0  0  0  0  0
  1  2  2  0
  3  2  1  1
  3  4  1  0
  4  5  1  0
  5  6  1  0
  6  7  1  0
  8  7  1  6
  8  9  1  0
 10  9  1  1
 10 11  1  0
 11 12  1  1
 11 13  1  0
 13 14  2  0
 14 15  1  0
 15 16  2  0
 16 17  1  0
 17 18  2  0
 18 19  1  0
 19 20  2  0
 20 21  1  0
 21 22  1  0
 20 23  1  0
 23 24  2  0
  8  3  1  0
 24 13  1  0
 10  5  1  0
 24 17  1  0
M  END
>  <zinc_id>  (1) 
ZINC000003831405

>  <smiles>  (1) 
C=C[C@H]1CN2CC[C@H]1C[C@@H]2[C@@H](O)c1ccnc2ccc(OC)cc12

$$$$
