
     RDKit          3D

 30 34  0  0  0  0  0  0  0  0999 V2000
    5.5220    1.8827    1.6532 O   0  0  0  0  0  0  0  0  0  0  0  0
    5.2673    1.9684    0.4189 C   0  0  0  0  0  0  0  0  0  0  0  0
    4.0038    1.5082   -0.0129 N   0  0  0  0  0  0  0  0  0  0  0  0
    3.4338    0.3288    0.5668 C   0  0  0  0  0  0  0  0  0  0  0  0
    4.0733   -0.7833    0.9984 N   0  0  0  0  0  0  0  0  0  0  0  0
    3.3674   -1.8824    0.6908 C   0  0  0  0  0  0  0  0  0  0  0  0
    3.6537   -3.2351    0.5578 C   0  0  0  0  0  0  0  0  0  0  0  0
    2.8941   -3.9733   -0.3401 C   0  0  0  0  0  0  0  0  0  0  0  0
    1.5620   -3.5930   -0.4481 C   0  0  0  0  0  0  0  0  0  0  0  0
    1.1976   -2.3467    0.0455 C   0  0  0  0  0  0  0  0  0  0  0  0
   -0.2121   -1.9430    0.0201 C   0  0  0  0  0  0  0  0  0  0  0  0
   -0.8569   -1.5908   -1.1548 C   0  0  0  0  0  0  0  0  0  0  0  0
   -1.9376   -0.7309   -1.1130 C   0  0  0  0  0  0  0  0  0  0  0  0
   -2.3689   -0.2372    0.1115 C   0  0  0  0  0  0  0  0  0  0  0  0
   -3.2487    0.9729    0.1454 C   0  0  0  0  0  0  0  0  0  0  0  0
   -4.3633    0.7086   -0.7181 N   0  0  0  0  0  0  0  0  0  0  0  0
   -5.3275   -0.2059   -0.1799 C   0  0  0  0  0  0  0  0  0  0  0  0
   -6.0436    0.3303    1.0427 C   0  0  0  0  0  0  0  0  0  0  0  0
   -6.9095    1.8024    0.5153 S   0  0  0  0  0  0  0  0  0  0  0  0
   -7.2900    2.6555    1.6808 O   0  0  0  0  0  0  0  0  0  0  0  0
   -8.0960    1.3699   -0.2876 O   0  0  0  0  0  0  0  0  0  0  0  0
   -5.7453    2.7348   -0.4589 C   0  0  0  0  0  0  0  0  0  0  0  0
   -4.9174    1.8633   -1.3548 C   0  0  0  0  0  0  0  0  0  0  0  0
   -2.0020   -0.9132    1.2580 C   0  0  0  0  0  0  0  0  0  0  0  0
   -0.9677   -1.8323    1.1798 C   0  0  0  0  0  0  0  0  0  0  0  0
    2.1283   -1.4239    0.3903 N   0  0  0  0  0  0  0  0  0  0  0  0
    2.1661   -0.0928    0.3374 N   0  0  0  0  0  0  0  0  0  0  0  0
    6.2322    2.6626   -0.4894 C   0  0  0  0  0  0  0  0  0  0  0  0
    7.0650    1.6236   -1.2894 C   0  0  0  0  0  0  0  0  0  0  0  0
    7.7200    2.3717   -0.1970 C   0  0  0  0  0  0  0  0  0  0  0  0
  1  2  2  0
  2  3  1  0
  3  4  1  0
  4  5  1  0
  5  6  2  0
  6  7  1  0
  7  8  2  0
  8  9  1  0
  9 10  2  0
 10 11  1  0
 11 12  2  0
 12 13  1  0
 13 14  2  0
 14 15  1  0
 15 16  1  0
 16 17  1  0
 17 18  1  0
 18 19  1  0
 19 20  2  0
 19 21  2  0
 19 22  1  0
 22 23  1  0
 14 24  1  0
 24 25  2  0
 10 26  1  0
 26 27  1  0
  2 28  1  0
 28 29  1  0
 29 30  1  0
 27  4  2  0
 30 28  1  0
 26  6  1  0
 25 11  1  0
 23 16  1  0
M  END
>  <zinc_id>  (1) 
ZINC000096174616

>  <smiles>  (1) 
O=C(Nc1nc2cccc(-c3ccc(CN4CCS(=O)(=O)CC4)cc3)n2n1)C1CC1

$$$$
