
     RDKit          3D

 38 42  0  0  0  0  0  0  0  0999 V2000
   -3.7590    2.9404    1.2294 C   0  0  0  0  0  0  0  0  0  0  0  0
   -4.0316    2.7675    1.1987 C   0  0  0  0  0  0  0  0  0  0  0  0
   -4.6476    1.2285    1.4422 C   0  0  2  0  0  0  0  0  0  0  0  0
   -3.2921    0.7735    2.2566 C   0  0  0  0  0  0  0  0  0  0  0  0
   -3.1174    1.4627    3.2950 O   0  0  0  0  0  0  0  0  0  0  0  0
   -3.3460   -0.6551    2.4104 N   0  0  0  0  0  0  0  0  0  0  0  0
   -2.7297   -1.3232    3.5547 C   0  0  0  0  0  0  0  0  0  0  0  0
   -3.5150   -1.3696    1.1773 C   0  0  0  0  0  0  0  0  0  0  0  0
   -3.0098   -2.6501    0.9845 C   0  0  0  0  0  0  0  0  0  0  0  0
   -2.3923   -3.0091   -0.1724 N   0  0  0  0  0  0  0  0  0  0  0  0
   -2.1392   -2.0684   -1.1198 C   0  0  0  0  0  0  0  0  0  0  0  0
   -0.8492   -1.9632   -1.7429 N   0  0  0  0  0  0  0  0  0  0  0  0
    0.2551   -1.3861   -1.0735 C   0  0  0  0  0  0  0  0  0  0  0  0
    0.3450   -0.0469   -0.7280 C   0  0  0  0  0  0  0  0  0  0  0  0
    1.5450    0.4025   -0.1847 C   0  0  0  0  0  0  0  0  0  0  0  0
    2.6360   -0.4447   -0.1457 C   0  0  0  0  0  0  0  0  0  0  0  0
    4.0001    0.0717   -0.2285 C   0  0  0  0  0  0  0  0  0  0  0  0
    4.2177    1.2832    0.0441 O   0  0  0  0  0  0  0  0  0  0  0  0
    5.1150   -0.7796   -0.3190 N   0  0  0  0  0  0  0  0  0  0  0  0
    6.3560   -0.4934    0.3578 C   0  0  0  0  0  0  0  0  0  0  0  0
    7.5634   -0.5816   -0.5245 C   0  0  0  0  0  0  0  0  0  0  0  0
    7.9544    0.7083   -1.1751 C   0  0  0  0  0  0  0  0  0  0  0  0
    8.0938    1.8148   -0.2727 N   0  0  0  0  0  0  0  0  0  0  0  0
    7.5441    3.0426   -0.8308 C   0  0  0  0  0  0  0  0  0  0  0  0
    7.6180    1.5433    1.0564 C   0  0  0  0  0  0  0  0  0  0  0  0
    6.3035    0.8230    1.0880 C   0  0  0  0  0  0  0  0  0  0  0  0
    2.3752   -1.8030   -0.1544 C   0  0  0  0  0  0  0  0  0  0  0  0
    1.0817   -2.2418   -0.3550 C   0  0  0  0  0  0  0  0  0  0  0  0
    0.6787   -3.5528   -0.0950 O   0  0  0  0  0  0  0  0  0  0  0  0
    1.6322   -4.5502    0.1556 C   0  0  0  0  0  0  0  0  0  0  0  0
   -3.0167   -1.0327   -1.1197 N   0  0  0  0  0  0  0  0  0  0  0  0
   -3.6117   -0.5990    0.0222 C   0  0  0  0  0  0  0  0  0  0  0  0
   -4.0598    0.7457    0.0311 N   0  0  0  0  0  0  0  0  0  0  0  0
   -4.8670    1.1728   -1.0967 C   0  0  0  0  0  0  0  0  0  0  0  0
   -4.3825    2.4044   -1.7769 C   0  0  0  0  0  0  0  0  0  0  0  0
   -5.6115    3.2519   -2.0565 C   0  0  0  0  0  0  0  0  0  0  0  0
   -6.6211    2.7898   -1.0373 C   0  0  0  0  0  0  0  0  0  0  0  0
   -6.3157    1.3237   -0.7794 C   0  0  0  0  0  0  0  0  0  0  0  0
  1  2  1  0
  3  2  1  6
  3  4  1  0
  4  5  2  0
  4  6  1  0
  6  7  1  0
  6  8  1  0
  8  9  2  0
  9 10  1  0
 10 11  2  0
 11 12  1  0
 12 13  1  0
 13 14  2  0
 14 15  1  0
 15 16  2  0
 16 17  1  0
 17 18  2  0
 17 19  1  0
 19 20  1  0
 20 21  1  0
 21 22  1  0
 22 23  1  0
 23 24  1  0
 23 25  1  0
 25 26  1  0
 16 27  1  0
 27 28  2  0
 28 29  1  0
 29 30  1  0
 11 31  1  0
 31 32  2  0
 32 33  1  0
 33 34  1  0
 34 35  1  0
 35 36  1  0
 36 37  1  0
 37 38  1  0
 33  3  1  0
 38 34  1  0
 32  8  1  0
 28 13  1  0
 26 20  1  0
M  END
>  <zinc_id>  (1) 
ZINC000013986815

>  <smiles>  (1) 
CC[C@@H]1C(=O)N(C)c2cnc(Nc3ccc(C(=O)NC4CCN(C)CC4)cc3OC)nc2N1C1CCCC1

$$$$
