REMARK SMILES COc1ccc(Cl)cc1C(=O)NCCc1ccc(S(=O)(=O)/N=C(\O)NC2CCCCC2)cc1
REMARK SMILES IDX 14 1 13 2 12 3 10 4 11 5 9 6 3 7 4 8 5 9 8 10 6 11 7 12 2 13
REMARK SMILES IDX 1 14 15 15 16 16 33 17 17 18 32 19 18 20 19 21 20 22 21 23
REMARK SMILES IDX 22 24 23 25 24 26 25 27 26 28 27 29 31 30 28 31 30 32 29 33
REMARK H PARENT
REMARK Flexibility Score: inf
ROOT
ATOM      1  C   UNL     1      -2.120   0.121  -0.557  1.00  0.00    -0.010 C 
ENDROOT
BRANCH   1   2
ATOM      2  C   UNL     1      -2.547  -1.177   0.076  1.00  0.00     0.022 C 
BRANCH   2   3
ATOM      3  N   UNL     1      -3.995  -1.147   0.179  1.00  0.00    -0.352 N 
ATOM      4  C   UNL     1      -4.677  -0.475   1.237  1.00  0.00     0.255 C 
ATOM      5  O   UNL     1      -3.939   0.107   2.089  1.00  0.00    -0.269 OA
BRANCH   4   6
ATOM      6  C   UNL     1      -5.928   0.222   0.915  1.00  0.00     0.083 A 
ATOM      7  C   UNL     1      -7.040  -0.459   0.485  1.00  0.00     0.131 A 
ATOM      8  C   UNL     1      -8.154   0.264   0.105  1.00  0.00    -0.018 A 
ATOM      9  C   UNL     1      -8.119   1.646   0.034  1.00  0.00    -0.040 A 
ATOM     10  C   UNL     1      -5.805   1.548   0.519  1.00  0.00    -0.027 A 
ATOM     11  C   UNL     1      -6.878   2.252  -0.013  1.00  0.00     0.042 A 
ATOM     12  Cl  UNL     1      -6.580   3.767  -0.827  1.00  0.00    -0.084 Cl
BRANCH   7  13
ATOM     13  O   UNL     1      -7.012  -1.839   0.302  1.00  0.00    -0.496 OA
ATOM     14  C   UNL     1      -6.825  -2.400  -0.982  1.00  0.00     0.078 C 
ENDBRANCH   7  13
ENDBRANCH   4   6
ENDBRANCH   2   3
ENDBRANCH   1   2
BRANCH   1  15
ATOM     15  C   UNL     1      -0.662   0.127  -0.894  1.00  0.00    -0.046 A 
ATOM     16  C   UNL     1      -0.100  -0.827  -1.732  1.00  0.00    -0.058 A 
ATOM     17  C   UNL     1       0.246   0.879  -0.158  1.00  0.00    -0.058 A 
ATOM     18  C   UNL     1       1.197  -1.288  -1.538  1.00  0.00    -0.041 A 
ATOM     19  C   UNL     1       1.512   0.366   0.096  1.00  0.00    -0.041 A 
ATOM     20  C   UNL     1       1.927  -0.846  -0.442  1.00  0.00     0.089 A 
BRANCH  20  21
ATOM     21  S   UNL     1       3.045  -1.896   0.411  1.00  0.00     0.286 S 
ATOM     22  O   UNL     1       3.133  -3.186  -0.337  1.00  0.00    -0.199 OA
ATOM     23  O   UNL     1       2.529  -2.193   1.790  1.00  0.00    -0.199 OA
BRANCH  21  24
ATOM     24  N   UNL     1       4.599  -1.172   0.514  1.00  0.00    -0.105 NA
ATOM     25  C   UNL     1       4.764  -0.023   1.080  1.00  0.00     0.298 C 
ATOM     26  O   UNL     1       3.881   0.299   2.099  1.00  0.00    -0.480 OA
ATOM     27  N   UNL     1       5.920   0.771   0.800  1.00  0.00    -0.337 N 
BRANCH  27  28
ATOM     28  C   UNL     1       6.580   0.629  -0.472  1.00  0.00     0.030 C 
ATOM     29  C   UNL     1       7.726  -0.352  -0.437  1.00  0.00    -0.033 C 
ATOM     30  C   UNL     1       6.950   1.944  -1.102  1.00  0.00    -0.033 C 
ATOM     31  C   UNL     1       8.870   0.292  -1.213  1.00  0.00    -0.051 C 
ATOM     32  C   UNL     1       8.183   2.518  -0.423  1.00  0.00    -0.051 C 
ATOM     33  C   UNL     1       9.319   1.528  -0.473  1.00  0.00    -0.053 C 
ENDBRANCH  27  28
ENDBRANCH  21  24
ENDBRANCH  20  21
ENDBRANCH   1  15
TORSDOF 8

