
     RDKit          3D

 21 22  0  0  0  0  0  0  0  0999 V2000
    6.5181    0.7988   -1.6595 C   0  0  0  0  0  0  0  0  0  0  0  0
    5.4492   -0.1292   -1.7005 O   0  0  0  0  0  0  0  0  0  0  0  0
    4.1584    0.2897   -1.4506 C   0  0  0  0  0  0  0  0  0  0  0  0
    3.8523    1.0594   -0.3360 C   0  0  0  0  0  0  0  0  0  0  0  0
    2.5743    1.0276    0.2087 C   0  0  0  0  0  0  0  0  0  0  0  0
    1.6576    0.0567   -0.1750 C   0  0  0  0  0  0  0  0  0  0  0  0
    0.6240   -0.7494    0.9977 S   0  0  0  0  0  0  0  0  0  0  0  0
    1.3183   -2.0526    1.3254 O   0  0  0  0  0  0  0  0  0  0  0  0
    0.5911    0.0777    2.2421 O   0  0  0  0  0  0  0  0  0  0  0  0
   -0.9248   -1.0412    0.3433 N   0  0  0  0  0  0  0  0  0  0  0  0
   -2.1047   -0.3413    0.7009 C   0  0  0  0  0  0  0  0  0  0  0  0
   -2.4551    0.8382    0.0528 C   0  0  0  0  0  0  0  0  0  0  0  0
   -1.3424    1.7335   -0.3686 C   0  0  0  0  0  0  0  0  0  0  0  0
   -3.7721    1.0955   -0.3096 C   0  0  0  0  0  0  0  0  0  0  0  0
   -4.7815    0.1862   -0.0141 C   0  0  0  0  0  0  0  0  0  0  0  0
   -5.9014   -0.0769   -0.9712 C   0  0  0  0  0  0  0  0  0  0  0  0
   -4.4690   -0.7214    0.9918 C   0  0  0  0  0  0  0  0  0  0  0  0
   -3.1533   -0.9614    1.3726 C   0  0  0  0  0  0  0  0  0  0  0  0
   -2.7997   -2.0982    2.2789 C   0  0  0  0  0  0  0  0  0  0  0  0
    1.8835   -0.4989   -1.4264 C   0  0  0  0  0  0  0  0  0  0  0  0
    3.0773   -0.2895   -2.1027 C   0  0  0  0  0  0  0  0  0  0  0  0
  1  2  1  0
  2  3  1  0
  3  4  2  0
  4  5  1  0
  5  6  2  0
  6  7  1  0
  7  8  2  0
  7  9  2  0
  7 10  1  0
 10 11  1  0
 11 12  2  0
 12 13  1  0
 12 14  1  0
 14 15  2  0
 15 16  1  0
 15 17  1  0
 17 18  2  0
 18 19  1  0
  6 20  1  0
 20 21  2  0
 21  3  1  0
 18 11  1  0
M  END
>  <zinc_id>  (1) 
ZINC000000184126

>  <smiles>  (1) 
COc1ccc(S(=O)(=O)Nc2c(C)cc(C)cc2C)cc1

$$$$
