
     RDKit          3D

 34 37  0  0  0  0  0  0  0  0999 V2000
   -8.2183    4.0783   -0.5318 C   0  0  0  0  0  0  0  0  0  0  0  0
   -7.5505    3.1861    0.3566 O   0  0  0  0  0  0  0  0  0  0  0  0
   -6.4917    2.4439   -0.1701 C   0  0  0  0  0  0  0  0  0  0  0  0
   -5.3098    3.0997   -0.2590 N   0  0  0  0  0  0  0  0  0  0  0  0
   -4.2935    2.3798   -0.7934 C   0  0  0  0  0  0  0  0  0  0  0  0
   -4.3405    0.9907   -0.7965 C   0  0  0  0  0  0  0  0  0  0  0  0
   -3.2182    0.2120   -0.7848 C   0  0  0  0  0  0  0  0  0  0  0  0
   -3.3616   -1.1232   -0.4268 C   0  0  0  0  0  0  0  0  0  0  0  0
   -2.2005   -1.9043   -0.0323 C   0  0  0  0  0  0  0  0  0  0  0  0
   -1.7615   -2.7314   -0.8869 O   0  0  0  0  0  0  0  0  0  0  0  0
   -1.3077   -1.5288    1.0034 N   0  0  0  0  0  0  0  0  0  0  0  0
    0.1110   -1.6855    0.8949 C   0  0  0  0  0  0  0  0  0  0  0  0
    0.9536   -0.6076    0.6781 C   0  0  0  0  0  0  0  0  0  0  0  0
    2.2381   -0.7563    0.2011 C   0  0  0  0  0  0  0  0  0  0  0  0
    3.2720    0.2072    0.5990 C   0  0  0  0  0  0  0  0  0  0  0  0
    3.9103    0.8816   -0.2499 O   0  0  0  0  0  0  0  0  0  0  0  0
    3.8174    0.1360    1.9034 N   0  0  0  0  0  0  0  0  0  0  0  0
    5.2079    0.3411    2.2200 C   0  0  0  0  0  0  0  0  0  0  0  0
    6.0408    0.6310    1.0324 C   0  0  0  0  0  0  0  0  0  0  0  0
    6.6333   -0.4473    0.3872 C   0  0  0  0  0  0  0  0  0  0  0  0
    7.4308   -0.1537   -0.7076 C   0  0  0  0  0  0  0  0  0  0  0  0
    7.7650    1.1511   -0.9853 C   0  0  0  0  0  0  0  0  0  0  0  0
    7.6463    2.1000    0.0229 C   0  0  0  0  0  0  0  0  0  0  0  0
    8.4276    3.6677   -0.1344 Cl  0  0  0  0  0  0  0  0  0  0  0  0
    6.7653    1.8167    1.0573 C   0  0  0  0  0  0  0  0  0  0  0  0
    2.6056   -2.0319   -0.2073 C   0  0  0  0  0  0  0  0  0  0  0  0
    1.8371   -3.1304    0.1548 C   0  0  0  0  0  0  0  0  0  0  0  0
    0.6350   -2.9630    0.8252 C   0  0  0  0  0  0  0  0  0  0  0  0
   -0.1368   -4.2385    1.7291 Cl  0  0  0  0  0  0  0  0  0  0  0  0
   -4.5773   -1.7030   -0.7693 C   0  0  0  0  0  0  0  0  0  0  0  0
   -4.6511   -2.9635   -0.8853 O   0  0  0  0  0  0  0  0  0  0  0  0
   -5.6420   -0.9228   -1.0766 N   0  0  0  0  0  0  0  0  0  0  0  0
   -5.5924    0.3928   -0.8683 C   0  0  0  0  0  0  0  0  0  0  0  0
   -6.6437    1.1757   -0.6116 N   0  0  0  0  0  0  0  0  0  0  0  0
  1  2  1  0
  2  3  1  0
  3  4  2  0
  4  5  1  0
  5  6  2  0
  6  7  1  0
  7  8  2  0
  8  9  1  0
  9 10  2  0
  9 11  1  0
 11 12  1  0
 12 13  2  0
 13 14  1  0
 14 15  1  0
 15 16  2  0
 15 17  1  0
 17 18  1  0
 18 19  1  0
 19 20  2  0
 20 21  1  0
 21 22  2  0
 22 23  1  0
 23 24  1  0
 23 25  2  0
 14 26  2  0
 26 27  1  0
 27 28  2  0
 28 29  1  0
  8 30  1  0
 30 31  2  0
 30 32  1  0
 32 33  1  0
 33 34  2  0
 34  3  1  0
 33  6  1  0
 28 12  1  0
 25 19  1  0
M  END
>  <zinc_id>  (1) 
ZINC000103250300

>  <smiles>  (1) 
COc1ncc2cc(C(=O)Nc3cc(C(=O)NCc4cccc(Cl)c4)ccc3Cl)c(=O)[nH]c2n1

$$$$
