
     RDKit          3D

 25 26  0  0  0  0  0  0  0  0999 V2000
   -1.8785   -0.1190   -0.4180 O   0  0  0  0  0  0  0  0  0  0  0  0
   -2.7594    0.7851   -0.3062 C   0  0  0  0  0  0  0  0  0  0  0  0
   -2.3622    2.1452   -0.3479 N   0  0  0  0  0  0  0  0  0  0  0  0
   -1.3245    2.4875   -1.3157 C   0  0  0  0  0  0  0  0  0  0  0  0
   -0.3382    1.3345   -1.4639 C   0  0  0  0  0  0  0  0  0  0  0  0
    1.1160    1.6836   -0.5336 S   0  0  0  0  0  0  0  0  0  0  0  0
    2.0680    2.4634   -1.4123 O   0  0  0  0  0  0  0  0  0  0  0  0
    0.7980    2.4973    0.6873 O   0  0  0  0  0  0  0  0  0  0  0  0
    1.9182    0.2208    0.0252 C   0  0  0  0  0  0  0  0  0  0  0  0
    2.2153   -0.7894   -0.8819 C   0  0  0  0  0  0  0  0  0  0  0  0
    3.4022   -1.5062   -0.7786 C   0  0  0  0  0  0  0  0  0  0  0  0
    4.3692   -1.1197    0.1431 C   0  0  0  0  0  0  0  0  0  0  0  0
    5.8198   -1.0543   -0.2212 C   0  0  0  0  0  0  0  0  0  0  0  0
    6.0126   -2.0459   -1.1742 F   0  0  0  0  0  0  0  0  0  0  0  0
    6.6183   -1.3812    0.8486 F   0  0  0  0  0  0  0  0  0  0  0  0
    6.1051    0.2056   -0.7324 F   0  0  0  0  0  0  0  0  0  0  0  0
    3.8841   -0.3702    1.2093 C   0  0  0  0  0  0  0  0  0  0  0  0
    2.6584    0.2080    1.1609 N   0  0  0  0  0  0  0  0  0  0  0  0
   -4.1045    0.3564    0.0920 C   0  0  0  0  0  0  0  0  0  0  0  0
   -4.9798    0.0624   -0.9305 C   0  0  0  0  0  0  0  0  0  0  0  0
   -6.1286   -0.6817   -0.6982 C   0  0  0  0  0  0  0  0  0  0  0  0
   -6.1885   -1.4070    0.4781 C   0  0  0  0  0  0  0  0  0  0  0  0
   -7.0498   -2.9299    0.5592 Cl  0  0  0  0  0  0  0  0  0  0  0  0
   -5.5320   -0.8617    1.5665 C   0  0  0  0  0  0  0  0  0  0  0  0
   -4.3391   -0.1836    1.3506 C   0  0  0  0  0  0  0  0  0  0  0  0
  1  2  2  0
  2  3  1  0
  3  4  1  0
  4  5  1  0
  5  6  1  0
  6  7  2  0
  6  8  2  0
  6  9  1  0
  9 10  2  0
 10 11  1  0
 11 12  2  0
 12 13  1  0
 13 14  1  0
 13 15  1  0
 13 16  1  0
 12 17  1  0
 17 18  2  0
  2 19  1  0
 19 20  2  0
 20 21  1  0
 21 22  2  0
 22 23  1  0
 22 24  1  0
 24 25  2  0
 18  9  1  0
 25 19  1  0
M  END
>  <zinc_id>  (1) 
ZINC000001024901

>  <smiles>  (1) 
O=C(NCCS(=O)(=O)c1ccc(C(F)(F)F)cn1)c1ccc(Cl)cc1

$$$$
