REMARK SMILES O=C1OC(c2ccc(O)cc2)(c2ccc(O)cc2)c2ccccc21
REMARK SMILES IDX 1 1 2 2 3 3 4 4 19 5 20 6 21 7 22 8 23 9 24 10 5 11 6 12
REMARK SMILES IDX 11 13 7 14 10 15 8 16 9 17 12 18 13 19 18 20 14 21 17 22
REMARK SMILES IDX 15 23 16 24
REMARK H PARENT
REMARK Flexibility Score: inf
ROOT
ATOM      1  O   UNL     1      -0.411  -2.807  -2.714  1.00  0.00    -0.246 OA
ATOM      2  C   UNL     1      -0.444  -1.987  -1.748  1.00  0.00     0.340 C 
ATOM      3  O   UNL     1      -0.029  -0.661  -1.710  1.00  0.00    -0.441 OA
ATOM      4  C   UNL     1       0.098  -0.245  -0.364  1.00  0.00     0.188 C 
ATOM      5  C   UNL     1      -0.270  -1.452   0.442  1.00  0.00     0.019 A 
ATOM      6  C   UNL     1      -0.544  -1.606   1.786  1.00  0.00    -0.053 A 
ATOM      7  C   UNL     1      -1.224  -2.727   2.250  1.00  0.00    -0.062 A 
ATOM      8  C   UNL     1      -2.195  -3.219   1.389  1.00  0.00    -0.061 A 
ATOM      9  C   UNL     1      -2.020  -3.085   0.018  1.00  0.00    -0.047 A 
ATOM     10  C   UNL     1      -1.003  -2.252  -0.421  1.00  0.00     0.068 A 
ENDROOT
BRANCH   4  11
ATOM     11  C   UNL     1       1.501   0.154  -0.156  1.00  0.00     0.005 A 
ATOM     12  C   UNL     1       2.254   0.589  -1.237  1.00  0.00    -0.051 A 
ATOM     13  C   UNL     1       1.906   0.638   1.081  1.00  0.00    -0.051 A 
ATOM     14  C   UNL     1       3.578   0.908  -1.049  1.00  0.00    -0.020 A 
ATOM     15  C   UNL     1       3.201   1.094   1.254  1.00  0.00    -0.020 A 
ATOM     16  C   UNL     1       4.113   0.969   0.229  1.00  0.00     0.115 A 
ATOM     17  O   UNL     1       5.467   0.700   0.454  1.00  0.00    -0.508 OA
ENDBRANCH   4  11
BRANCH   4  18
ATOM     18  C   UNL     1      -0.847   0.822   0.005  1.00  0.00     0.005 A 
ATOM     19  C   UNL     1      -0.502   1.991   0.645  1.00  0.00    -0.051 A 
ATOM     20  C   UNL     1      -2.193   0.577  -0.232  1.00  0.00    -0.051 A 
ATOM     21  C   UNL     1      -1.409   3.039   0.663  1.00  0.00    -0.020 A 
ATOM     22  C   UNL     1      -3.098   1.626  -0.136  1.00  0.00    -0.020 A 
ATOM     23  C   UNL     1      -2.638   2.908   0.037  1.00  0.00     0.115 A 
ATOM     24  O   UNL     1      -3.293   4.027  -0.487  1.00  0.00    -0.508 OA
ENDBRANCH   4  18
TORSDOF 2

