
     RDKit          3D

 36 40  0  0  0  0  0  0  0  0999 V2000
   -1.8409   -2.7010   -1.1290 O   0  0  0  0  0  0  0  0  0  0  0  0
   -2.4298   -2.0125   -0.2425 C   0  0  0  0  0  0  0  0  0  0  0  0
   -2.0524   -0.6365   -0.1728 N   0  0  0  0  0  0  0  0  0  0  0  0
   -0.6724   -0.3288   -0.3698 C   0  0  0  0  0  0  0  0  0  0  0  0
    0.1259   -1.1082   -1.1732 C   0  0  0  0  0  0  0  0  0  0  0  0
    1.5096   -1.0386   -1.1149 C   0  0  0  0  0  0  0  0  0  0  0  0
    2.0386   -0.5539    0.0740 C   0  0  0  0  0  0  0  0  0  0  0  0
    3.3739   -0.8982    0.4637 N   0  0  0  0  0  0  0  0  0  0  0  0
    4.4007   -0.6326   -0.5410 C   0  0  0  0  0  0  0  0  0  0  0  0
    4.4763    0.8849   -0.6534 C   0  0  0  0  0  0  0  0  0  0  0  0
    4.6063    1.4956    0.7136 C   0  0  0  0  0  0  0  0  0  0  0  0
    5.7527    2.4427    0.6680 C   0  0  0  0  0  0  0  0  0  0  0  0
    5.4608    3.6505    0.4136 O   0  0  0  0  0  0  0  0  0  0  0  0
    7.0478    2.0289    0.2176 N   0  0  0  0  0  0  0  0  0  0  0  0
    7.1144    1.4335   -1.0927 C   0  0  0  0  0  0  0  0  0  0  0  0
    8.4987    1.0127   -1.4832 C   0  0  0  0  0  0  0  0  0  0  0  0
    9.2217    0.4239   -0.4670 O   0  0  0  0  0  0  0  0  0  0  0  0
    8.4996    0.2123    0.6927 C   0  0  0  0  0  0  0  0  0  0  0  0
    8.0310    1.5730    1.1946 C   0  0  0  0  0  0  0  0  0  0  0  0
    4.8318    0.4879    1.8038 C   0  0  0  0  0  0  0  0  0  0  0  0
    3.7378   -0.5449    1.8333 C   0  0  0  0  0  0  0  0  0  0  0  0
    1.3041    0.4119    0.7315 C   0  0  0  0  0  0  0  0  0  0  0  0
   -0.0586    0.5326    0.5124 C   0  0  0  0  0  0  0  0  0  0  0  0
   -3.8138   -2.3952    0.0502 C   0  0  0  0  0  0  0  0  0  0  0  0
   -4.5238   -1.8343    1.1032 C   0  0  0  0  0  0  0  0  0  0  0  0
   -5.8630   -1.6475    1.0143 N   0  0  0  0  0  0  0  0  0  0  0  0
   -6.5304   -1.9922   -0.1120 C   0  0  0  0  0  0  0  0  0  0  0  0
   -7.6002   -1.2349   -0.5977 O   0  0  0  0  0  0  0  0  0  0  0  0
   -7.5902    0.1627   -0.5689 C   0  0  0  0  0  0  0  0  0  0  0  0
   -7.4285    0.7372    0.6824 C   0  0  0  0  0  0  0  0  0  0  0  0
   -7.5891    2.1096    0.7636 C   0  0  0  0  0  0  0  0  0  0  0  0
   -7.5338    2.8539   -0.4054 C   0  0  0  0  0  0  0  0  0  0  0  0
   -6.9836    2.2372   -1.5174 C   0  0  0  0  0  0  0  0  0  0  0  0
   -7.0312    0.8543   -1.6299 C   0  0  0  0  0  0  0  0  0  0  0  0
   -5.9119   -2.8845   -0.9112 N   0  0  0  0  0  0  0  0  0  0  0  0
   -4.5779   -3.1013   -0.8711 C   0  0  0  0  0  0  0  0  0  0  0  0
  1  2  2  0
  2  3  1  0
  3  4  1  0
  4  5  2  0
  5  6  1  0
  6  7  2  0
  7  8  1  0
  8  9  1  0
  9 10  1  0
 10 11  1  0
 11 12  1  0
 12 13  2  0
 12 14  1  0
 14 15  1  0
 15 16  1  0
 16 17  1  0
 17 18  1  0
 18 19  1  0
 11 20  1  0
 20 21  1  0
  7 22  1  0
 22 23  2  0
  2 24  1  0
 24 25  2  0
 25 26  1  0
 26 27  2  0
 27 28  1  0
 28 29  1  0
 29 30  2  0
 30 31  1  0
 31 32  2  0
 32 33  1  0
 33 34  2  0
 27 35  1  0
 35 36  2  0
 23  4  1  0
 36 24  1  0
 21  8  1  0
 34 29  1  0
 19 14  1  0
M  END
>  <zinc_id>  (1) 
ZINC000034884123

>  <smiles>  (1) 
O=C(Nc1ccc(N2CCC(C(=O)N3CCOCC3)CC2)cc1)c1cnc(Oc2ccccc2)nc1

$$$$
