
     RDKit          3D

 50 53  0  0  0  0  0  0  0  0999 V2000
   -1.3169   -3.6102   -2.0163 C   0  0  0  0  0  0  0  0  0  0  0  0
   -1.4500   -3.5885   -1.8642 O   0  0  0  0  0  0  0  0  0  0  0  0
   -2.3863   -3.6908   -0.6343 C   0  0  1  0  0  0  0  0  0  0  0  0
   -1.0915   -3.6241    0.3907 C   0  0  0  0  0  0  0  0  0  0  0  0
   -0.1985   -4.5508    0.1572 C   0  0  0  0  0  0  0  0  0  0  0  0
    1.1632   -4.4015    0.0862 O   0  0  0  0  0  0  0  0  0  0  0  0
    1.8368   -3.1970    0.2478 C   0  0  1  0  0  0  0  0  0  0  0  0
    1.2005   -2.2839    1.2761 C   0  0  0  0  0  0  0  0  0  0  0  0
    3.1929   -3.3442    0.6637 O   0  0  0  0  0  0  0  0  0  0  0  0
    3.7465   -2.0801    0.4113 C   0  0  0  0  0  0  0  0  0  0  0  0
    3.0640   -1.4965   -0.6610 C   0  0  0  0  0  0  0  0  0  0  0  0
    3.2336   -0.1751   -1.0088 C   0  0  0  0  0  0  0  0  0  0  0  0
    2.2817    0.6601   -1.5832 C   0  0  0  0  0  0  0  0  0  0  0  0
    2.0174    0.7741   -2.9631 O   0  0  0  0  0  0  0  0  0  0  0  0
    2.1115    1.8744   -0.9173 C   0  0  0  0  0  0  0  0  0  0  0  0
    3.1545    2.4927   -0.2211 C   0  0  0  0  0  0  0  0  0  0  0  0
    4.3463    1.8091   -0.0827 C   0  0  0  0  0  0  0  0  0  0  0  0
    5.6132    2.3290   -0.4064 O   0  0  0  0  0  0  0  0  0  0  0  0
    4.2771    0.4331   -0.3004 C   0  0  0  0  0  0  0  0  0  0  0  0
    5.2653   -0.3026    0.3418 C   0  0  0  0  0  0  0  0  0  0  0  0
    6.3019    0.3146    1.0507 O   0  0  0  0  0  0  0  0  0  0  0  0
    5.0179   -1.6130    0.7381 C   0  0  0  0  0  0  0  0  0  0  0  0
    6.0086   -2.4261    1.4728 C   0  0  0  0  0  0  0  0  0  0  0  0
    2.7123    3.5762    0.5680 N   0  0  0  0  0  0  0  0  0  0  0  0
    2.0976    4.7771    0.1636 C   0  0  0  0  0  0  0  0  0  0  0  0
    2.7067    5.7417   -0.4093 O   0  0  0  0  0  0  0  0  0  0  0  0
    0.9150    5.2948    0.8950 C   0  0  0  0  0  0  0  0  0  0  0  0
    1.0614    6.5133    1.7756 C   0  0  0  0  0  0  0  0  0  0  0  0
   -0.1866    4.5448    0.9553 C   0  0  0  0  0  0  0  0  0  0  0  0
   -1.2033    4.4725   -0.0967 C   0  0  0  0  0  0  0  0  0  0  0  0
   -2.3897    4.9179    0.2083 C   0  0  0  0  0  0  0  0  0  0  0  0
   -3.4703    3.8819    0.7982 C   0  0  2  0  0  0  0  0  0  0  0  0
   -2.3770    3.1620    1.7936 C   0  0  0  0  0  0  0  0  0  0  0  0
   -3.1904    2.7732   -0.5138 C   0  0  2  0  0  0  0  0  0  0  0  0
   -4.1255    3.5977   -1.3921 O   0  0  0  0  0  0  0  0  0  0  0  0
   -4.3989    1.7154    0.0947 C   0  0  1  0  0  0  0  0  0  0  0  0
   -5.3734    1.6923   -1.1898 C   0  0  0  0  0  0  0  0  0  0  0  0
   -3.6293    0.2887   -0.4874 C   0  0  1  0  0  0  0  0  0  0  0  0
   -2.2996    0.6225    0.1910 O   0  0  0  0  0  0  0  0  0  0  0  0
   -4.1112   -0.6264    0.8843 C   0  0  1  0  0  0  0  0  0  0  0  0
   -5.6731   -0.3396    0.6425 C   0  0  0  0  0  0  0  0  0  0  0  0
   -4.2019   -2.1043    0.0203 C   0  0  2  0  0  0  0  0  0  0  0  0
   -3.7273   -2.8884    1.2707 O   0  0  0  0  0  0  0  0  0  0  0  0
   -4.6603   -3.8316    1.7169 C   0  0  0  0  0  0  0  0  0  0  0  0
   -4.2862   -5.2653    1.9189 C   0  0  0  0  0  0  0  0  0  0  0  0
   -5.8367   -3.4094    1.8297 O   0  0  0  0  0  0  0  0  0  0  0  0
   -2.5970   -1.9743   -0.5586 C   0  0  2  0  0  0  0  0  0  0  0  0
   -3.0989   -1.8600   -2.0745 C   0  0  0  0  0  0  0  0  0  0  0  0
    2.0905   -2.4755   -1.0460 C   0  0  0  0  0  0  0  0  0  0  0  0
    1.8635   -3.1000   -2.1361 O   0  0  0  0  0  0  0  0  0  0  0  0
  1  2  1  0
  3  2  1  6
  3  4  1  0
  4  5  2  0
  5  6  1  0
  6  7  1  0
  7  8  1  1
  7  9  1  0
  9 10  1  0
 10 11  2  0
 11 12  1  0
 12 13  2  0
 13 14  1  0
 13 15  1  0
 15 16  2  0
 16 17  1  0
 17 18  1  0
 17 19  2  0
 19 20  1  0
 20 21  1  0
 20 22  2  0
 22 23  1  0
 16 24  1  0
 24 25  1  0
 25 26  2  0
 25 27  1  0
 27 28  1  0
 27 29  2  0
 29 30  1  0
 30 31  2  0
 31 32  1  0
 32 33  1  1
 32 34  1  0
 34 35  1  6
 34 36  1  0
 36 37  1  6
 36 38  1  0
 38 39  1  1
 38 40  1  0
 40 41  1  6
 40 42  1  0
 42 43  1  1
 43 44  1  0
 44 45  1  0
 44 46  2  0
 42 47  1  0
 47 48  1  6
 11 49  1  0
 49 50  2  0
 47  3  1  0
 49  7  1  0
 22 10  1  0
 19 12  1  0
M  END
>  <zinc_id>  (1) 
ZINC000169633673

>  <smiles>  (1) 
CO[C@H]1/C=C/O[C@@]2(C)Oc3c(C)c(O)c4c(O)c(cc(O)c4c3C2=O)NC(=O)/C(C)=C\C=C\[C@H](C)[C@H](O)[C@@H](C)[C@@H](O)[C@@H](C)[C@H](OC(C)=O)[C@@H]1C

$$$$
