
     RDKit          3D

 35 37  0  0  0  0  0  0  0  0999 V2000
   -3.7492    5.2135   -0.5519 C   0  0  0  0  0  0  0  0  0  0  0  0
   -4.2795    4.8352   -0.3145 C   0  0  0  0  0  0  0  0  0  0  0  0
   -4.0677    3.4885    0.1069 O   0  0  0  0  0  0  0  0  0  0  0  0
   -4.0289    2.5512   -0.8834 C   0  0  0  0  0  0  0  0  0  0  0  0
   -3.2113    2.7678   -1.8331 O   0  0  0  0  0  0  0  0  0  0  0  0
   -3.7361    1.0051   -0.4135 C   0  0  2  0  0  0  0  0  0  0  0  0
   -4.8109    1.0913    0.8716 C   0  0  0  0  0  0  0  0  0  0  0  0
   -5.5500   -0.2027    0.7234 C   0  0  0  0  0  0  0  0  0  0  0  0
   -5.9180   -0.6938   -0.5254 C   0  0  0  0  0  0  0  0  0  0  0  0
   -6.2673   -2.0299   -0.6833 C   0  0  0  0  0  0  0  0  0  0  0  0
   -5.6939   -2.8972    0.2393 C   0  0  0  0  0  0  0  0  0  0  0  0
   -5.5672   -2.4203    1.5377 C   0  0  0  0  0  0  0  0  0  0  0  0
   -5.7766   -1.0674    1.7852 C   0  0  0  0  0  0  0  0  0  0  0  0
   -2.4939    1.4380    0.5099 N   0  0  0  0  0  0  0  0  0  0  0  0
   -1.6356    0.3719    0.8525 C   0  0  0  0  0  0  0  0  0  0  0  0
   -2.2109   -0.6578    1.3187 O   0  0  0  0  0  0  0  0  0  0  0  0
   -0.2697    0.1794    0.4255 C   0  0  0  0  0  0  0  0  0  0  0  0
    0.7013    1.1554    0.4147 C   0  0  0  0  0  0  0  0  0  0  0  0
    1.9820    0.8181   -0.0076 C   0  0  0  0  0  0  0  0  0  0  0  0
    3.2528    2.0220   -0.1644 Cl  0  0  0  0  0  0  0  0  0  0  0  0
    2.3146   -0.4805   -0.3761 C   0  0  0  0  0  0  0  0  0  0  0  0
    3.5773   -0.9854   -0.1104 O   0  0  0  0  0  0  0  0  0  0  0  0
    3.7328   -1.9392    0.9374 C   0  0  0  0  0  0  0  0  0  0  0  0
    4.8607   -2.8655    0.5115 C   0  0  0  0  0  0  0  0  0  0  0  0
    6.0042   -2.0016    0.2470 N   0  0  0  0  0  0  0  0  0  0  0  0
    6.1006   -0.9809    1.2633 C   0  0  0  0  0  0  0  0  0  0  0  0
    6.2270    0.4093    0.6848 C   0  0  0  0  0  0  0  0  0  0  0  0
    7.1811    0.4938   -0.3831 N   0  0  0  0  0  0  0  0  0  0  0  0
    8.4995    0.6560    0.1940 C   0  0  0  0  0  0  0  0  0  0  0  0
    7.1099   -0.5921   -1.3263 C   0  0  0  0  0  0  0  0  0  0  0  0
    5.8842   -1.4495   -1.0937 C   0  0  0  0  0  0  0  0  0  0  0  0
    1.2807   -1.3550   -0.6559 C   0  0  0  0  0  0  0  0  0  0  0  0
    1.5972   -3.0327   -1.0747 Cl  0  0  0  0  0  0  0  0  0  0  0  0
   -0.0089   -0.9574   -0.3323 C   0  0  0  0  0  0  0  0  0  0  0  0
   -1.0302   -1.8877   -0.5617 O   0  0  0  0  0  0  0  0  0  0  0  0
  1  2  1  0
  2  3  1  0
  3  4  1  0
  4  5  2  0
  6  4  1  6
  6  7  1  0
  7  8  1  0
  8  9  2  0
  9 10  1  0
 10 11  2  0
 11 12  1  0
 12 13  2  0
  6 14  1  0
 14 15  1  0
 15 16  2  0
 15 17  1  0
 17 18  2  0
 18 19  1  0
 19 20  1  0
 19 21  2  0
 21 22  1  0
 22 23  1  0
 23 24  1  0
 24 25  1  0
 25 26  1  0
 26 27  1  0
 27 28  1  0
 28 29  1  0
 28 30  1  0
 30 31  1  0
 21 32  1  0
 32 33  1  0
 32 34  2  0
 34 35  1  0
 13  8  1  0
 34 17  1  0
 31 25  1  0
M  END
>  <zinc_id>  (1) 
ZINC000022449850

>  <smiles>  (1) 
CCOC(=O)[C@H](Cc1ccccc1)NC(=O)c1cc(Cl)c(OCCN2CCN(C)CC2)c(Cl)c1O

$$$$
