
     RDKit          3D

 28 31  0  0  0  0  0  0  0  0999 V2000
    6.5688    0.1965    1.8510 C   0  0  0  0  0  0  0  0  0  0  0  0
    5.9302    1.0501    0.9063 O   0  0  0  0  0  0  0  0  0  0  0  0
    4.7005    0.6843    0.3660 C   0  0  0  0  0  0  0  0  0  0  0  0
    3.8054    0.0690    1.2319 C   0  0  0  0  0  0  0  0  0  0  0  0
    2.7109   -0.5984    0.7356 C   0  0  0  0  0  0  0  0  0  0  0  0
    1.8976   -1.3654    1.5008 N   0  0  0  0  0  0  0  0  0  0  0  0
    1.2144   -2.3253    0.8305 C   0  0  0  0  0  0  0  0  0  0  0  0
    0.6651   -1.9272   -0.3431 N   0  0  0  0  0  0  0  0  0  0  0  0
    1.3104   -1.0708   -1.1728 C   0  0  0  0  0  0  0  0  0  0  0  0
    0.5700   -0.3633   -2.1743 N   0  0  0  0  0  0  0  0  0  0  0  0
   -0.7719    0.0116   -1.8427 C   0  0  0  0  0  0  0  0  0  0  0  0
   -1.7887   -0.8920   -2.1228 C   0  0  0  0  0  0  0  0  0  0  0  0
   -2.8937   -0.9906   -1.2901 C   0  0  0  0  0  0  0  0  0  0  0  0
   -2.9537   -0.2893   -0.0913 C   0  0  0  0  0  0  0  0  0  0  0  0
   -3.5943   -0.8207    1.0076 O   0  0  0  0  0  0  0  0  0  0  0  0
   -4.7157   -0.1503    1.5066 C   0  0  0  0  0  0  0  0  0  0  0  0
   -4.7761    1.2361    1.5074 C   0  0  0  0  0  0  0  0  0  0  0  0
   -6.0055    1.8579    1.6278 C   0  0  0  0  0  0  0  0  0  0  0  0
   -7.1420    1.1112    1.3740 C   0  0  0  0  0  0  0  0  0  0  0  0
   -7.0758   -0.2329    1.7219 C   0  0  0  0  0  0  0  0  0  0  0  0
   -5.8601   -0.8686    1.7347 C   0  0  0  0  0  0  0  0  0  0  0  0
   -2.1425    0.8376   -0.0264 C   0  0  0  0  0  0  0  0  0  0  0  0
   -0.9758    0.8835   -0.7809 C   0  0  0  0  0  0  0  0  0  0  0  0
    2.3863   -0.4057   -0.5990 C   0  0  0  0  0  0  0  0  0  0  0  0
    3.2632    0.2173   -1.4789 C   0  0  0  0  0  0  0  0  0  0  0  0
    4.4963    0.6508   -1.0075 C   0  0  0  0  0  0  0  0  0  0  0  0
    5.5684    0.8739   -1.8757 O   0  0  0  0  0  0  0  0  0  0  0  0
    5.6084    0.1433   -3.0967 C   0  0  0  0  0  0  0  0  0  0  0  0
  1  2  1  0
  2  3  1  0
  3  4  2  0
  4  5  1  0
  5  6  2  0
  6  7  1  0
  7  8  2  0
  8  9  1  0
  9 10  1  0
 10 11  1  0
 11 12  2  0
 12 13  1  0
 13 14  2  0
 14 15  1  0
 15 16  1  0
 16 17  2  0
 17 18  1  0
 18 19  2  0
 19 20  1  0
 20 21  2  0
 14 22  1  0
 22 23  2  0
  9 24  2  0
 24 25  1  0
 25 26  2  0
 26 27  1  0
 27 28  1  0
 26  3  1  0
 24  5  1  0
 23 11  1  0
 21 16  1  0
M  END
>  <zinc_id>  (1) 
ZINC000001386783

>  <smiles>  (1) 
COc1cc2ncnc(Nc3ccc(Oc4ccccc4)cc3)c2cc1OC

$$$$
