
     RDKit          3D

 38 42  0  0  0  0  0  0  0  0999 V2000
    1.3521   -4.3494    0.3213 C   0  0  0  0  0  0  0  0  0  0  0  0
    1.7912   -3.6050    1.5622 C   0  0  0  0  0  0  0  0  0  0  0  0
    1.7836   -2.1636    1.3266 N   0  0  0  0  0  0  0  0  0  0  0  0
    0.7606   -1.3062    1.5595 C   0  0  0  0  0  0  0  0  0  0  0  0
    0.9721   -0.2074    0.7568 C   0  0  0  0  0  0  0  0  0  0  0  0
    0.0286    0.8458    0.3626 C   0  0  0  0  0  0  0  0  0  0  0  0
    0.4160    2.1691    0.2430 C   0  0  0  0  0  0  0  0  0  0  0  0
   -0.3576    2.9945   -0.5580 C   0  0  0  0  0  0  0  0  0  0  0  0
   -1.3690    2.4801   -1.2884 N   0  0  0  0  0  0  0  0  0  0  0  0
   -1.9425    1.3264   -0.8675 C   0  0  0  0  0  0  0  0  0  0  0  0
   -3.0937    0.6785   -1.1688 N   0  0  0  0  0  0  0  0  0  0  0  0
   -3.3347   -0.2482   -0.2094 C   0  0  0  0  0  0  0  0  0  0  0  0
   -4.6233   -0.6183    0.3877 C   0  0  0  0  0  0  0  0  0  0  0  0
   -4.7284   -0.7783    1.7585 C   0  0  0  0  0  0  0  0  0  0  0  0
   -5.8727   -0.4179    2.4503 C   0  0  0  0  0  0  0  0  0  0  0  0
   -6.9346    0.1832    1.7887 C   0  0  0  0  0  0  0  0  0  0  0  0
   -6.9652    0.0236    0.4133 C   0  0  0  0  0  0  0  0  0  0  0  0
   -8.1315    0.5143   -0.3630 C   0  0  0  0  0  0  0  0  0  0  0  0
   -9.1494   -0.5167   -0.5112 N   0  0  0  0  0  0  0  0  0  0  0  0
   -8.5684   -1.7987   -0.1398 C   0  0  0  0  0  0  0  0  0  0  0  0
  -10.2601   -0.2009    0.3754 C   0  0  0  0  0  0  0  0  0  0  0  0
   -5.7717   -0.1954   -0.2632 C   0  0  0  0  0  0  0  0  0  0  0  0
   -2.0716   -0.5509    0.2837 C   0  0  0  0  0  0  0  0  0  0  0  0
   -1.1691    0.3982   -0.1819 C   0  0  0  0  0  0  0  0  0  0  0  0
    2.1779   -0.3772    0.1047 C   0  0  0  0  0  0  0  0  0  0  0  0
    3.0197    0.6406   -0.5387 C   0  0  0  0  0  0  0  0  0  0  0  0
    3.5248    0.4377   -1.8181 C   0  0  0  0  0  0  0  0  0  0  0  0
    4.8018    0.8579   -2.1730 C   0  0  0  0  0  0  0  0  0  0  0  0
    5.6335    1.4313   -1.2339 C   0  0  0  0  0  0  0  0  0  0  0  0
    7.0272    1.1135   -1.1350 N   0  0  0  0  0  0  0  0  0  0  0  0
    7.5198   -0.2144   -1.1385 C   0  0  0  0  0  0  0  0  0  0  0  0
    6.8576   -1.0486   -1.8268 O   0  0  0  0  0  0  0  0  0  0  0  0
    8.3698   -0.7423   -0.1151 N   0  0  0  0  0  0  0  0  0  0  0  0
    9.2204    0.1886    0.6218 C   0  0  0  0  0  0  0  0  0  0  0  0
    7.7957   -1.8274    0.6767 C   0  0  0  0  0  0  0  0  0  0  0  0
    5.0106    1.9297   -0.0959 C   0  0  0  0  0  0  0  0  0  0  0  0
    3.6911    1.6083    0.2002 C   0  0  0  0  0  0  0  0  0  0  0  0
    2.5894   -1.6108    0.4334 N   0  0  0  0  0  0  0  0  0  0  0  0
  1  2  1  0
  2  3  1  0
  3  4  1  0
  4  5  2  0
  5  6  1  0
  6  7  2  0
  7  8  1  0
  8  9  2  0
  9 10  1  0
 10 11  1  0
 11 12  1  0
 12 13  1  0
 13 14  2  0
 14 15  1  0
 15 16  2  0
 16 17  1  0
 17 18  1  0
 18 19  1  0
 19 20  1  0
 19 21  1  0
 17 22  2  0
 12 23  2  0
 23 24  1  0
  5 25  1  0
 25 26  1  0
 26 27  2  0
 27 28  1  0
 28 29  2  0
 29 30  1  0
 30 31  1  0
 31 32  2  0
 31 33  1  0
 33 34  1  0
 33 35  1  0
 29 36  1  0
 36 37  2  0
 25 38  2  0
 38  3  1  0
 24  6  1  0
 37 26  1  0
 24 10  2  0
 22 13  1  0
M  END
>  <zinc_id>  (1) 
ZINC000043170519

>  <smiles>  (1) 
CCn1cc(-c2ccnc3[nH]c(-c4cccc(CN(C)C)c4)cc23)c(-c2ccc(NC(=O)N(C)C)cc2)n1

$$$$
