
     RDKit          3D

 20 21  0  0  0  0  0  0  0  0999 V2000
    2.3431    0.0932    0.8579 O   0  0  0  0  0  0  0  0  0  0  0  0
    1.1308    0.2216    0.5535 C   0  0  0  0  0  0  0  0  0  0  0  0
    0.5794    1.5734    0.4078 C   0  0  0  0  0  0  0  0  0  0  0  0
    1.2620    2.6639    0.9285 C   0  0  0  0  0  0  0  0  0  0  0  0
    1.0135    3.9148    0.3827 C   0  0  0  0  0  0  0  0  0  0  0  0
    0.2717    4.0347   -0.7798 C   0  0  0  0  0  0  0  0  0  0  0  0
   -0.7424    3.1004   -0.9374 C   0  0  0  0  0  0  0  0  0  0  0  0
   -0.5027    1.8346   -0.4173 C   0  0  0  0  0  0  0  0  0  0  0  0
   -1.2165    0.6657   -0.9419 C   0  0  0  0  0  0  0  0  0  0  0  0
   -2.1383    0.8968   -1.7569 O   0  0  0  0  0  0  0  0  0  0  0  0
   -0.7694   -0.6705   -0.5649 C   0  0  0  0  0  0  0  0  0  0  0  0
   -1.7795   -2.0591   -1.0075 S   0  0  0  0  0  0  0  0  0  0  0  0
   -3.1389   -2.3333    0.1599 C   0  0  0  0  0  0  0  0  0  0  0  0
   -4.2065   -1.2773    0.0101 C   0  0  0  0  0  0  0  0  0  0  0  0
   -5.4747   -1.7465    0.3117 O   0  0  0  0  0  0  0  0  0  0  0  0
    0.4285   -0.9001   -0.0624 C   0  0  0  0  0  0  0  0  0  0  0  0
    1.1403   -2.5139   -0.2449 S   0  0  0  0  0  0  0  0  0  0  0  0
    2.8686   -2.5749    0.2473 C   0  0  0  0  0  0  0  0  0  0  0  0
    3.8212   -2.4287   -0.9144 C   0  0  0  0  0  0  0  0  0  0  0  0
    5.1100   -2.4950   -0.4078 O   0  0  0  0  0  0  0  0  0  0  0  0
  1  2  2  0
  2  3  1  0
  3  4  2  0
  4  5  1  0
  5  6  2  0
  6  7  1  0
  7  8  2  0
  8  9  1  0
  9 10  2  0
  9 11  1  0
 11 12  1  0
 12 13  1  0
 13 14  1  0
 14 15  1  0
 11 16  2  0
 16 17  1  0
 17 18  1  0
 18 19  1  0
 19 20  1  0
 16  2  1  0
  8  3  1  0
M  END
>  <zinc_id>  (1) 
ZINC000001615742

>  <smiles>  (1) 
O=C1C(SCCO)=C(SCCO)C(=O)c2ccccc21

$$$$
