
     RDKit          3D

 32 36  0  0  0  0  0  0  0  0999 V2000
    2.2644    2.0811    1.1594 C   0  0  0  0  0  0  0  0  0  0  0  0
    1.7183    1.0540    0.3402 O   0  0  0  0  0  0  0  0  0  0  0  0
    2.3739   -0.1811    0.3319 C   0  0  0  0  0  0  0  0  0  0  0  0
    3.7050   -0.3054    0.7011 C   0  0  0  0  0  0  0  0  0  0  0  0
    4.5230   -1.3079    0.1948 C   0  0  0  0  0  0  0  0  0  0  0  0
    5.9124   -1.0712   -0.0691 N   0  0  0  0  0  0  0  0  0  0  0  0
    6.6061   -0.3285    0.9825 C   0  0  0  0  0  0  0  0  0  0  0  0
    6.3256    1.1387    0.6832 C   0  0  0  0  0  0  0  0  0  0  0  0
    7.0539    1.5060   -0.5037 N   0  0  0  0  0  0  0  0  0  0  0  0
    8.3409    2.0339   -0.0553 C   0  0  0  0  0  0  0  0  0  0  0  0
    7.3232    0.4019   -1.3859 C   0  0  0  0  0  0  0  0  0  0  0  0
    6.2179   -0.6197   -1.4251 C   0  0  0  0  0  0  0  0  0  0  0  0
    3.9097   -2.2501   -0.5999 C   0  0  0  0  0  0  0  0  0  0  0  0
    2.5238   -2.3321   -0.6309 C   0  0  0  0  0  0  0  0  0  0  0  0
    1.7352   -1.3156   -0.1209 C   0  0  0  0  0  0  0  0  0  0  0  0
    0.3898   -1.2693   -0.5442 N   0  0  0  0  0  0  0  0  0  0  0  0
   -0.7149   -1.0622    0.3320 C   0  0  0  0  0  0  0  0  0  0  0  0
   -0.5767   -0.4841    1.5480 N   0  0  0  0  0  0  0  0  0  0  0  0
   -1.4863    0.3937    2.0328 C   0  0  0  0  0  0  0  0  0  0  0  0
   -2.6631    0.6263    1.3339 C   0  0  0  0  0  0  0  0  0  0  0  0
   -2.9095   -0.1867    0.2341 C   0  0  0  0  0  0  0  0  0  0  0  0
   -4.2349   -0.2236   -0.3950 C   0  0  0  0  0  0  0  0  0  0  0  0
   -4.9687   -1.3814   -0.6228 C   0  0  0  0  0  0  0  0  0  0  0  0
   -6.2929   -1.0968   -0.5795 N   0  0  0  0  0  0  0  0  0  0  0  0
   -7.3565   -2.0863   -0.4400 C   0  0  0  0  0  0  0  0  0  0  0  0
   -6.4109    0.2528   -0.6066 C   0  0  0  0  0  0  0  0  0  0  0  0
   -7.5200    1.0291   -0.2950 C   0  0  0  0  0  0  0  0  0  0  0  0
   -7.4070    2.3218    0.0268 N   0  0  0  0  0  0  0  0  0  0  0  0
   -6.2045    2.8020    0.4273 C   0  0  0  0  0  0  0  0  0  0  0  0
   -5.0820    2.0765    0.1177 C   0  0  0  0  0  0  0  0  0  0  0  0
   -5.1497    0.8187   -0.4685 C   0  0  0  0  0  0  0  0  0  0  0  0
   -1.9457   -1.0343   -0.2016 N   0  0  0  0  0  0  0  0  0  0  0  0
  1  2  1  0
  2  3  1  0
  3  4  2  0
  4  5  1  0
  5  6  1  0
  6  7  1  0
  7  8  1  0
  8  9  1  0
  9 10  1  0
  9 11  1  0
 11 12  1  0
  5 13  2  0
 13 14  1  0
 14 15  2  0
 15 16  1  0
 16 17  1  0
 17 18  2  0
 18 19  1  0
 19 20  2  0
 20 21  1  0
 21 22  1  0
 22 23  2  0
 23 24  1  0
 24 25  1  0
 24 26  1  0
 26 27  2  0
 27 28  1  0
 28 29  2  0
 29 30  1  0
 30 31  2  0
 21 32  2  0
 15  3  1  0
 32 17  1  0
 12  6  1  0
 31 22  1  0
 31 26  1  0
M  END
>  <zinc_id>  (1) 
ZINC000096170450

>  <smiles>  (1) 
COc1cc(N2CCN(C)CC2)ccc1Nc1nccc(-c2cn(C)c3cnccc23)n1

$$$$
