REMARK SMILES c1cc(OCCN2CCCCC2)cc(-c2n[nH]c3ccc(-c4nc[nH]n4)cc23)c1
REMARK SMILES IDX 4 1 3 2 14 3 29 4 13 5 1 6 2 7 15 8 21 9 20 10 27 11 19 12
REMARK SMILES IDX 28 13 18 14 17 15 16 16 22 17 24 18 23 19 25 20 26 21 5 22
REMARK SMILES IDX 6 23 7 24 8 25 12 26 9 27 11 28 10 29
REMARK H PARENT
REMARK Flexibility Score: inf
ROOT
ATOM      1  O   UNL     1       3.023  -0.984   1.000  1.00  0.00    -0.492 OA
ENDROOT
BRANCH   1   2
ATOM      2  C   UNL     1       1.935  -0.299   0.509  1.00  0.00     0.120 A 
ATOM      3  C   UNL     1      -0.343  -0.411  -0.261  1.00  0.00     0.006 A 
ATOM      4  C   UNL     1      -0.367   0.969  -0.118  1.00  0.00    -0.052 A 
ATOM      5  C   UNL     1       0.801  -1.045   0.209  1.00  0.00    -0.010 A 
ATOM      6  C   UNL     1       0.787   1.708   0.093  1.00  0.00    -0.058 A 
ATOM      7  C   UNL     1       1.995   1.022   0.082  1.00  0.00    -0.020 A 
BRANCH   3   8
ATOM      8  C   UNL     1      -1.331  -1.132  -1.069  1.00  0.00     0.100 A 
ATOM      9  C   UNL     1      -4.800  -0.286  -0.130  1.00  0.00     0.022 A 
ATOM     10  C   UNL     1      -5.406  -0.724  -1.278  1.00  0.00    -0.049 A 
ATOM     11  C   UNL     1      -3.456  -0.562   0.094  1.00  0.00    -0.039 A 
ATOM     12  C   UNL     1      -4.635  -1.173  -2.325  1.00  0.00    -0.036 A 
ATOM     13  C   UNL     1      -2.704  -0.927  -1.003  1.00  0.00     0.028 A 
ATOM     14  C   UNL     1      -3.269  -1.207  -2.239  1.00  0.00     0.066 A 
ATOM     15  N   UNL     1      -2.226  -1.444  -3.050  1.00  0.00    -0.277 N 
ATOM     16  N   UNL     1      -1.102  -1.511  -2.337  1.00  0.00    -0.174 NA
BRANCH   9  17
ATOM     17  C   UNL     1      -5.505   0.680   0.722  1.00  0.00     0.180 A 
ATOM     18  C   UNL     1      -5.744   2.239   2.233  1.00  0.00     0.111 A 
ATOM     19  N   UNL     1      -5.004   1.164   1.882  1.00  0.00    -0.216 NA
ATOM     20  N   UNL     1      -6.403   2.579   1.100  1.00  0.00    -0.265 N 
ATOM     21  N   UNL     1      -6.581   1.425   0.459  1.00  0.00    -0.154 NA
ENDBRANCH   9  17
ENDBRANCH   3   8
ENDBRANCH   1   2
BRANCH   1  22
ATOM     22  C   UNL     1       4.068  -0.408   1.748  1.00  0.00     0.101 C 
BRANCH  22  23
ATOM     23  C   UNL     1       4.530   0.917   1.159  1.00  0.00     0.032 C 
BRANCH  23  24
ATOM     24  N   UNL     1       5.836   0.717   0.582  1.00  0.00    -0.300 NA
ATOM     25  C   UNL     1       5.755  -0.328  -0.422  1.00  0.00    -0.002 C 
ATOM     26  C   UNL     1       6.788   0.382   1.622  1.00  0.00    -0.002 C 
ATOM     27  C   UNL     1       6.925  -1.277  -0.250  1.00  0.00    -0.040 C 
ATOM     28  C   UNL     1       8.200   0.351   1.108  1.00  0.00    -0.040 C 
ATOM     29  C   UNL     1       8.232  -0.525  -0.120  1.00  0.00    -0.051 C 
ENDBRANCH  23  24
ENDBRANCH  22  23
ENDBRANCH   1  22
TORSDOF 6

