
     RDKit          3D

 31 32  0  0  0  0  0  0  0  0999 V2000
   -8.3810    0.0239    1.6587 C   0  0  0  0  0  0  0  0  0  0  0  0
   -7.7893   -1.0747    1.0005 O   0  0  0  0  0  0  0  0  0  0  0  0
   -6.4757   -0.9769    0.5581 C   0  0  0  0  0  0  0  0  0  0  0  0
   -5.8236   -2.0600    0.0061 C   0  0  0  0  0  0  0  0  0  0  0  0
   -4.4561   -2.0238   -0.2321 C   0  0  0  0  0  0  0  0  0  0  0  0
   -3.9038   -3.0911   -0.9116 O   0  0  0  0  0  0  0  0  0  0  0  0
   -3.4134   -2.8423   -2.2274 C   0  0  0  0  0  0  0  0  0  0  0  0
   -3.7288   -0.8660   -0.0620 C   0  0  0  0  0  0  0  0  0  0  0  0
   -2.4055   -0.6627   -0.6645 C   0  0  0  0  0  0  0  0  0  0  0  0
   -1.4290   -0.1888    0.0768 C   0  0  0  0  0  0  0  0  0  0  0  0
   -0.1102    0.7790   -0.5233 S   0  0  0  0  0  0  0  0  0  0  0  0
    0.1628    1.8897    0.4643 O   0  0  0  0  0  0  0  0  0  0  0  0
   -0.5355    1.4195   -1.8219 O   0  0  0  0  0  0  0  0  0  0  0  0
    1.3157   -0.2410   -0.7378 C   0  0  0  0  0  0  0  0  0  0  0  0
    2.5299    0.3121   -0.1150 C   0  0  0  0  0  0  0  0  0  0  0  0
    2.5529    1.1501    0.9658 C   0  0  0  0  0  0  0  0  0  0  0  0
    3.7068    1.8341    1.3307 C   0  0  0  0  0  0  0  0  0  0  0  0
    4.8351    1.7216    0.5276 C   0  0  0  0  0  0  0  0  0  0  0  0
    5.6962    2.8031    0.3153 O   0  0  0  0  0  0  0  0  0  0  0  0
    5.2640    3.8970   -0.4705 C   0  0  0  0  0  0  0  0  0  0  0  0
    4.8609    0.7433   -0.4591 C   0  0  0  0  0  0  0  0  0  0  0  0
    6.1153    0.2443   -0.8203 O   0  0  0  0  0  0  0  0  0  0  0  0
    6.4785   -1.3443   -0.2948 P   0  0  0  0  0  0  0  0  0  0  0  0
    6.5218   -1.3294    1.2044 O   0  0  0  0  0  0  0  0  0  0  0  0
    7.9154   -1.9233   -0.9414 O   0  0  0  0  0  0  0  0  0  0  0  0
    5.2355   -2.3631   -0.7917 O   0  0  0  0  0  0  0  0  0  0  0  0
    3.7570   -0.0790   -0.6328 C   0  0  0  0  0  0  0  0  0  0  0  0
   -4.4232    0.2240    0.4457 C   0  0  0  0  0  0  0  0  0  0  0  0
   -3.8643    1.4886    0.2370 O   0  0  0  0  0  0  0  0  0  0  0  0
   -4.5088    2.4309   -0.6152 C   0  0  0  0  0  0  0  0  0  0  0  0
   -5.6997    0.1051    0.9222 C   0  0  0  0  0  0  0  0  0  0  0  0
  1  2  1  0
  2  3  1  0
  3  4  2  0
  4  5  1  0
  5  6  1  0
  6  7  1  0
  5  8  2  0
  8  9  1  0
  9 10  2  0
 10 11  1  0
 11 12  2  0
 11 13  2  0
 11 14  1  0
 14 15  1  0
 15 16  2  0
 16 17  1  0
 17 18  2  0
 18 19  1  0
 19 20  1  0
 18 21  1  0
 21 22  1  0
 22 23  1  0
 23 24  2  0
 23 25  1  0
 23 26  1  0
 21 27  2  0
  8 28  1  0
 28 29  1  0
 29 30  1  0
 28 31  2  0
 31  3  1  0
 27 15  1  0
M  END
>  <zinc_id>  (1) 
ZINC000028965775

>  <smiles>  (1) 
COc1cc(OC)c(/C=C/S(=O)(=O)Cc2ccc(OC)c(OP(=O)(O)O)c2)c(OC)c1

$$$$
