
     RDKit          3D

 24 27  0  0  0  0  0  0  0  0999 V2000
    4.7788    1.0993    1.0278 C   0  0  0  0  0  0  0  0  0  0  0  0
    4.6170    1.0106   -0.4800 C   0  0  0  0  0  0  0  0  0  0  0  0
    3.4157    0.3393   -0.8366 O   0  0  0  0  0  0  0  0  0  0  0  0
    2.2540    0.5094   -0.0770 C   0  0  0  0  0  0  0  0  0  0  0  0
    2.4386    0.9566    1.0957 O   0  0  0  0  0  0  0  0  0  0  0  0
    1.2395   -0.5377   -0.2037 C   0  0  0  0  0  0  0  0  0  0  0  0
    1.5361   -1.8841   -0.1432 C   0  0  0  0  0  0  0  0  0  0  0  0
    2.7014   -2.2271   -0.4594 O   0  0  0  0  0  0  0  0  0  0  0  0
    0.5370   -2.7942   -0.0359 N   0  0  0  0  0  0  0  0  0  0  0  0
   -0.6093   -2.4340    0.5924 C   0  0  0  0  0  0  0  0  0  0  0  0
   -1.6451   -3.3612    0.5612 C   0  0  0  0  0  0  0  0  0  0  0  0
   -2.9711   -2.9691    0.6998 C   0  0  0  0  0  0  0  0  0  0  0  0
   -3.2001   -1.6663    1.1214 C   0  0  0  0  0  0  0  0  0  0  0  0
   -2.2530   -0.6812    0.8817 C   0  0  0  0  0  0  0  0  0  0  0  0
   -1.0060   -1.1103    0.4469 C   0  0  0  0  0  0  0  0  0  0  0  0
   -0.0823   -0.1729    0.0027 C   0  0  0  0  0  0  0  0  0  0  0  0
   -0.4942    1.1500   -0.4827 C   0  0  0  0  0  0  0  0  0  0  0  0
    0.4447    2.0012   -1.0525 C   0  0  0  0  0  0  0  0  0  0  0  0
   -0.0831    3.0012   -1.8608 C   0  0  0  0  0  0  0  0  0  0  0  0
   -1.3019    3.5344   -1.4921 C   0  0  0  0  0  0  0  0  0  0  0  0
   -2.1382    2.8130   -0.6484 C   0  0  0  0  0  0  0  0  0  0  0  0
   -1.7258    1.6302   -0.0765 C   0  0  0  0  0  0  0  0  0  0  0  0
   -2.6467    0.7015    0.5862 C   0  0  0  0  0  0  0  0  0  0  0  0
   -3.8060    1.0913    0.8331 O   0  0  0  0  0  0  0  0  0  0  0  0
  1  2  1  0
  2  3  1  0
  3  4  1  0
  4  5  2  0
  4  6  1  0
  6  7  1  0
  7  8  2  0
  7  9  1  0
  9 10  1  0
 10 11  2  0
 11 12  1  0
 12 13  2  0
 13 14  1  0
 14 15  2  0
 15 16  1  0
 16 17  1  0
 17 18  2  0
 18 19  1  0
 19 20  2  0
 20 21  1  0
 21 22  2  0
 22 23  1  0
 23 24  2  0
 16  6  2  0
 22 17  1  0
 15 10  1  0
 23 14  1  0
M  END
>  <zinc_id>  (1) 
ZINC000005644396

>  <smiles>  (1) 
CCOC(=O)c1c2c3c(cccc3[nH]c1=O)C(=O)c1ccccc1-2

$$$$
