REMARK SMILES Cc1c(-c2ccnn2C)cc(C(=O)NCc2ccc(S(C)(=O)=O)cn2)c(=O)n1-c1cccc(C(F)(F)F)c1
REMARK SMILES IDX 12 1 13 2 14 3 11 4 1 5 2 6 3 7 28 8 10 9 26 10 27 11 4 12
REMARK SMILES IDX 5 13 8 14 6 15 7 16 9 17 29 18 30 19 38 20 31 21 33 22 32 23
REMARK SMILES IDX 34 24 35 25 36 26 37 27 15 28 16 29 17 30 25 31 18 32 24 33
REMARK SMILES IDX 19 34 20 35 21 36 22 37 23 38
REMARK H PARENT
REMARK Flexibility Score: inf
ROOT
ATOM      1  C   UNL     1       1.630  -0.935   0.379  1.00  0.00     0.257 C 
ATOM      2  O   UNL     1       2.400  -1.506   1.209  1.00  0.00    -0.269 OA
ATOM      3  N   UNL     1       1.981  -1.044  -0.985  1.00  0.00    -0.346 N 
ENDROOT
BRANCH   1   4
ATOM      4  C   UNL     1       0.209  -0.747   0.702  1.00  0.00     0.106 A 
ATOM      5  C   UNL     1      -3.304  -0.965  -1.427  1.00  0.00    -0.023 C 
ATOM      6  C   UNL     1      -2.395  -0.774  -0.254  1.00  0.00     0.033 A 
ATOM      7  C   UNL     1      -1.908  -1.875   0.439  1.00  0.00     0.020 A 
ATOM      8  N   UNL     1      -1.749   0.396  -0.030  1.00  0.00    -0.280 N 
ATOM      9  C   UNL     1      -0.628  -1.821   0.978  1.00  0.00    -0.033 A 
ATOM     10  C   UNL     1      -0.430   0.413   0.280  1.00  0.00     0.268 A 
ATOM     11  O   UNL     1       0.234   1.490   0.261  1.00  0.00    -0.268 OA
BRANCH   7  12
ATOM     12  C   UNL     1      -2.650  -3.137   0.331  1.00  0.00     0.070 A 
ATOM     13  C   UNL     1      -2.815  -3.806  -0.877  1.00  0.00    -0.016 A 
ATOM     14  N   UNL     1      -3.150  -3.865   1.331  1.00  0.00    -0.268 N 
ATOM     15  C   UNL     1      -3.657  -4.865  -0.559  1.00  0.00     0.050 A 
ATOM     16  N   UNL     1      -3.763  -4.883   0.771  1.00  0.00    -0.181 NA
ATOM     17  C   UNL     1      -3.340  -3.314   2.671  1.00  0.00     0.030 C 
ENDBRANCH   7  12
BRANCH   8  18
ATOM     18  C   UNL     1      -2.412   1.583  -0.484  1.00  0.00     0.050 A 
ATOM     19  C   UNL     1      -2.732   1.773  -1.823  1.00  0.00    -0.038 A 
ATOM     20  C   UNL     1      -3.249   2.211   0.424  1.00  0.00    -0.026 A 
ATOM     21  C   UNL     1      -3.865   2.477  -2.214  1.00  0.00    -0.060 A 
ATOM     22  C   UNL     1      -4.349   2.941   0.066  1.00  0.00     0.058 A 
ATOM     23  C   UNL     1      -4.657   3.090  -1.265  1.00  0.00    -0.050 A 
BRANCH  22  24
ATOM     24  C   UNL     1      -5.171   3.609   1.099  1.00  0.00     0.416 C 
ATOM     25  F   UNL     1      -5.879   4.629   0.492  1.00  0.00    -0.166 F 
ATOM     26  F   UNL     1      -6.007   2.726   1.742  1.00  0.00    -0.166 F 
ATOM     27  F   UNL     1      -4.315   4.155   2.022  1.00  0.00    -0.166 F 
ENDBRANCH  22  24
ENDBRANCH   8  18
ENDBRANCH   1   4
BRANCH   3  28
ATOM     28  C   UNL     1       3.003  -1.923  -1.502  1.00  0.00     0.060 C 
BRANCH  28  29
ATOM     29  C   UNL     1       4.290  -1.160  -1.510  1.00  0.00     0.060 A 
ATOM     30  C   UNL     1       4.316   0.217  -1.692  1.00  0.00    -0.037 A 
ATOM     31  N   UNL     1       5.404  -1.698  -0.961  1.00  0.00    -0.258 NA
ATOM     32  C   UNL     1       5.386   0.967  -1.219  1.00  0.00    -0.040 A 
ATOM     33  C   UNL     1       6.249  -0.979  -0.187  1.00  0.00     0.046 A 
ATOM     34  C   UNL     1       6.115   0.403  -0.187  1.00  0.00     0.085 A 
BRANCH  34  35
ATOM     35  S   UNL     1       7.511   1.300   0.397  1.00  0.00     0.177 S 
ATOM     36  C   UNL     1       7.182   3.035   0.346  1.00  0.00     0.043 C 
ATOM     37  O   UNL     1       8.643   1.025  -0.553  1.00  0.00    -0.224 OA
ATOM     38  O   UNL     1       7.872   0.857   1.786  1.00  0.00    -0.224 OA
ENDBRANCH  34  35
ENDBRANCH  28  29
ENDBRANCH   3  28
TORSDOF 7

