
     RDKit          3D

 25 27  0  0  0  0  0  0  0  0999 V2000
    0.2902    4.7179    0.8169 N   0  0  0  0  0  0  0  0  0  0  0  0
    0.2371    3.8004    0.2641 C   0  0  0  0  0  0  0  0  0  0  0  0
    0.3021    3.8759   -0.9949 O   0  0  0  0  0  0  0  0  0  0  0  0
   -0.1031    2.5167    0.7831 N   0  0  0  0  0  0  0  0  0  0  0  0
    0.4049    1.3091    0.1977 C   0  0  0  0  0  0  0  0  0  0  0  0
    1.5962    0.7450    0.5648 C   0  0  0  0  0  0  0  0  0  0  0  0
    2.1254   -0.0779   -0.4236 C   0  0  0  0  0  0  0  0  0  0  0  0
    3.2766   -0.9615   -0.1655 C   0  0  0  0  0  0  0  0  0  0  0  0
    3.1354   -2.3362   -0.0240 C   0  0  0  0  0  0  0  0  0  0  0  0
    4.2047   -3.1911   -0.1660 C   0  0  0  0  0  0  0  0  0  0  0  0
    5.4648   -2.6351   -0.0012 C   0  0  0  0  0  0  0  0  0  0  0  0
    5.6190   -1.2873    0.1667 C   0  0  0  0  0  0  0  0  0  0  0  0
    6.7904   -0.7380    0.5292 F   0  0  0  0  0  0  0  0  0  0  0  0
    4.5446   -0.4601   -0.0648 C   0  0  0  0  0  0  0  0  0  0  0  0
    0.6419   -0.6748   -1.0645 S   0  0  0  0  0  0  0  0  0  0  0  0
   -0.4952    0.3658   -0.2892 C   0  0  0  0  0  0  0  0  0  0  0  0
   -1.8498    0.0699    0.2203 C   0  0  0  0  0  0  0  0  0  0  0  0
   -2.0322   -1.1677    0.4577 O   0  0  0  0  0  0  0  0  0  0  0  0
   -2.9115    0.6834   -0.4504 N   0  0  0  0  0  0  0  0  0  0  0  0
   -4.3824    0.3596    0.0048 C   0  0  1  0  0  0  0  0  0  0  0  0
   -4.8037   -0.0810   -1.5210 C   0  0  0  0  0  0  0  0  0  0  0  0
   -6.2031   -0.6064   -1.4357 C   0  0  0  0  0  0  0  0  0  0  0  0
   -6.4453   -1.1274   -0.0538 C   0  0  0  0  0  0  0  0  0  0  0  0
   -5.3155   -1.9020    0.3437 N   0  0  0  0  0  0  0  0  0  0  0  0
   -4.0916   -1.1972    0.4441 C   0  0  0  0  0  0  0  0  0  0  0  0
  1  2  1  0
  2  3  2  0
  2  4  1  0
  4  5  1  0
  5  6  1  0
  6  7  2  0
  7  8  1  0
  8  9  2  0
  9 10  1  0
 10 11  2  0
 11 12  1  0
 12 13  1  0
 12 14  2  0
  7 15  1  0
 15 16  1  0
 16 17  1  0
 17 18  2  0
 17 19  1  0
 20 19  1  6
 20 21  1  0
 21 22  1  0
 22 23  1  0
 23 24  1  0
 24 25  1  0
 16  5  2  0
 25 20  1  0
 14  8  1  0
M  END
>  <zinc_id>  (1) 
ZINC000033359230

>  <smiles>  (1) 
NC(=O)Nc1cc(-c2cccc(F)c2)sc1C(=O)N[C@H]1CCCNC1

$$$$
