REMARK SMILES CCC(CC)n1ccc2c(C(=O)NCc3c(C)cc(C)[nH]c3=O)cc(C#N)cc21
REMARK SMILES IDX 6 1 7 2 8 3 9 4 29 5 28 6 25 7 24 8 10 9 3 10 2 11 1 12 4 13
REMARK SMILES IDX 5 14 11 15 12 16 13 17 14 18 15 19 16 20 22 21 17 22 18 23
REMARK SMILES IDX 21 24 23 25 19 26 20 27 26 28 27 29
REMARK H PARENT
REMARK Flexibility Score: inf
ROOT
ATOM      1  N   UNL     1      -3.943  -0.313   0.778  1.00  0.00    -0.344 N 
ATOM      2  C   UNL     1      -3.417  -1.482   1.219  1.00  0.00     0.005 A 
ATOM      3  C   UNL     1      -2.077  -1.530   0.938  1.00  0.00    -0.036 A 
ATOM      4  C   UNL     1      -1.767  -0.280   0.422  1.00  0.00     0.012 A 
ATOM      5  C   UNL     1      -2.924   0.474   0.364  1.00  0.00     0.050 A 
ATOM      6  C   UNL     1      -2.968   1.502  -0.570  1.00  0.00    -0.020 A 
ATOM      7  C   UNL     1      -1.814   1.890  -1.240  1.00  0.00     0.055 A 
ATOM      8  C   UNL     1      -0.611   1.363  -0.791  1.00  0.00    -0.031 A 
ATOM      9  C   UNL     1      -0.549   0.184  -0.059  1.00  0.00     0.050 A 
ENDROOT
BRANCH   1  10
ATOM     10  C   UNL     1      -5.351  -0.023   0.878  1.00  0.00     0.033 C 
BRANCH  10  11
ATOM     11  C   UNL     1      -5.643   1.407   1.238  1.00  0.00    -0.035 C 
ATOM     12  C   UNL     1      -6.197   2.205   0.079  1.00  0.00    -0.063 C 
ENDBRANCH  10  11
BRANCH  10  13
ATOM     13  C   UNL     1      -6.148  -0.519  -0.295  1.00  0.00    -0.035 C 
ATOM     14  C   UNL     1      -5.547  -1.789  -0.833  1.00  0.00    -0.063 C 
ENDBRANCH  10  13
ENDBRANCH   1  10
BRANCH   9  15
ATOM     15  C   UNL     1       0.653  -0.658  -0.063  1.00  0.00     0.252 C 
ATOM     16  O   UNL     1       1.059  -1.145   1.034  1.00  0.00    -0.269 OA
ATOM     17  N   UNL     1       1.680  -0.357  -1.016  1.00  0.00    -0.348 N 
BRANCH  17  18
ATOM     18  C   UNL     1       2.806  -1.234  -1.202  1.00  0.00     0.049 C 
BRANCH  18  19
ATOM     19  C   UNL     1       3.835  -0.917  -0.174  1.00  0.00     0.039 A 
ATOM     20  C   UNL     1       4.243   0.406  -0.063  1.00  0.00    -0.039 A 
ATOM     21  C   UNL     1       4.781  -1.904   0.075  1.00  0.00     0.253 A 
ATOM     22  C   UNL     1       3.274   1.510  -0.354  1.00  0.00    -0.039 C 
ATOM     23  C   UNL     1       5.544   0.675   0.344  1.00  0.00    -0.040 A 
ATOM     24  N   UNL     1       6.025  -1.583   0.505  1.00  0.00    -0.326 N 
ATOM     25  O   UNL     1       4.400  -3.106   0.010  1.00  0.00    -0.269 OA
ATOM     26  C   UNL     1       6.508  -0.326   0.359  1.00  0.00     0.015 A 
ATOM     27  C   UNL     1       7.901  -0.079  -0.130  1.00  0.00    -0.024 C 
ENDBRANCH  18  19
ENDBRANCH  17  18
ENDBRANCH   9  15
BRANCH   7  28
ATOM     28  C   UNL     1      -1.870   2.642  -2.474  1.00  0.00     0.099 C 
ATOM     29  N   UNL     1      -1.882   2.988  -3.588  1.00  0.00    -0.192 NA
ENDBRANCH   7  28
TORSDOF 7

