REMARK SMILES O=C(NCCN1CCC(n2c(=O)[nH]c3cc(Cl)ccc32)CC1)c1ccc(F)cc1
REMARK SMILES IDX 4 1 3 2 1 3 2 4 23 5 24 6 29 7 25 8 28 9 26 10 27 11 5 12
REMARK SMILES IDX 6 13 7 14 22 15 8 16 21 17 9 18 10 19 11 20 20 21 12 22
REMARK SMILES IDX 13 23 14 24 19 25 15 26 18 27 16 28 17 29
REMARK H PARENT
REMARK Flexibility Score: inf
ROOT
ATOM      1  C   UNL     1       1.525  -0.289  -1.290  1.00  0.00     0.030 C 
ENDROOT
BRANCH   1   2
ATOM      2  N   UNL     1       2.828  -0.928  -1.358  1.00  0.00    -0.351 N 
ATOM      3  O   UNL     1       3.229  -0.492   0.847  1.00  0.00    -0.269 OA
ATOM      4  C   UNL     1       3.654  -1.073  -0.198  1.00  0.00     0.251 C 
BRANCH   4   5
ATOM      5  C   UNL     1       5.100  -1.215  -0.397  1.00  0.00     0.040 A 
ATOM      6  C   UNL     1       5.724  -0.852  -1.572  1.00  0.00    -0.047 A 
ATOM      7  C   UNL     1       5.922  -1.386   0.707  1.00  0.00    -0.047 A 
ATOM      8  C   UNL     1       6.972  -0.251  -1.499  1.00  0.00    -0.026 A 
ATOM      9  C   UNL     1       7.264  -1.044   0.692  1.00  0.00    -0.026 A 
ATOM     10  C   UNL     1       7.824  -0.662  -0.498  1.00  0.00     0.123 A 
ATOM     11  F   UNL     1       9.104  -0.213  -0.536  1.00  0.00    -0.207 F 
ENDBRANCH   4   5
ENDBRANCH   1   2
BRANCH   1  12
ATOM     12  C   UNL     1       1.201   0.227   0.086  1.00  0.00     0.016 C 
BRANCH  12  13
ATOM     13  N   UNL     1       0.211  -0.623   0.708  1.00  0.00    -0.301 NA
ATOM     14  C   UNL     1      -0.574   0.096   1.697  1.00  0.00     0.000 C 
ATOM     15  C   UNL     1      -0.715  -1.169  -0.241  1.00  0.00     0.000 C 
ATOM     16  C   UNL     1      -1.084   1.336   1.029  1.00  0.00    -0.019 C 
ATOM     17  C   UNL     1      -1.586  -0.183  -0.925  1.00  0.00    -0.019 C 
ATOM     18  C   UNL     1      -1.800   1.115  -0.253  1.00  0.00     0.041 C 
BRANCH  18  19
ATOM     19  N   UNL     1      -3.194   1.468  -0.178  1.00  0.00    -0.289 N 
ATOM     20  C   UNL     1      -3.756   2.639  -0.534  1.00  0.00     0.326 A 
ATOM     21  C   UNL     1      -4.156   0.661   0.275  1.00  0.00     0.069 A 
ATOM     22  O   UNL     1      -3.152   3.753  -0.492  1.00  0.00    -0.248 OA
ATOM     23  N   UNL     1      -5.084   2.417  -0.599  1.00  0.00    -0.305 N 
ATOM     24  C   UNL     1      -5.362   1.177  -0.184  1.00  0.00     0.068 A 
ATOM     25  C   UNL     1      -4.236  -0.558   0.919  1.00  0.00    -0.035 A 
ATOM     26  C   UNL     1      -6.514   0.408  -0.234  1.00  0.00    -0.018 A 
ATOM     27  C   UNL     1      -5.393  -1.327   0.911  1.00  0.00    -0.041 A 
ATOM     28  C   UNL     1      -6.481  -0.921   0.148  1.00  0.00     0.043 A 
ATOM     29  Cl  UNL     1      -7.469  -2.111  -0.694  1.00  0.00    -0.084 Cl
ENDBRANCH  18  19
ENDBRANCH  12  13
ENDBRANCH   1  12
TORSDOF 5

