
     RDKit          3D

 19 21  0  0  0  0  0  0  0  0999 V2000
    3.9893    1.2873   -1.8114 O   0  0  0  0  0  0  0  0  0  0  0  0
    3.7494    0.1898   -1.1143 C   0  0  0  0  0  0  0  0  0  0  0  0
    2.6432    0.6600   -0.0049 C   0  0  1  0  0  0  0  0  0  0  0  0
    1.6903   -0.4516   -0.3718 O   0  0  0  0  0  0  0  0  0  0  0  0
    1.0039    0.0644    0.9002 C   0  0  1  0  0  0  0  0  0  0  0  0
   -0.2329   -0.9226    0.8526 N   0  0  0  0  0  0  0  0  0  0  0  0
   -0.3934   -2.0274    0.2230 C   0  0  0  0  0  0  0  0  0  0  0  0
   -1.6395   -2.1000   -0.3401 N   0  0  0  0  0  0  0  0  0  0  0  0
   -2.0553   -0.8554   -0.3484 C   0  0  0  0  0  0  0  0  0  0  0  0
   -1.3634   -0.1962    0.6235 C   0  0  0  0  0  0  0  0  0  0  0  0
   -1.6996    1.0438    1.2545 N   0  0  0  0  0  0  0  0  0  0  0  0
   -2.5624    1.9097    0.8070 C   0  0  0  0  0  0  0  0  0  0  0  0
   -2.9087    2.0124   -0.5785 N   0  0  0  0  0  0  0  0  0  0  0  0
   -2.5523    1.0785   -1.6427 C   0  0  0  0  0  0  0  0  0  0  0  0
   -3.3176   -0.3150   -1.1787 C   0  0  1  0  0  0  0  0  0  0  0  0
   -2.8853   -1.0187   -2.4581 O   0  0  0  0  0  0  0  0  0  0  0  0
    1.9789   -0.9727    1.7273 C   0  0  0  0  0  0  0  0  0  0  0  0
    3.3774   -0.2632    1.2472 C   0  0  2  0  0  0  0  0  0  0  0  0
    3.1779    0.8770    2.2136 O   0  0  0  0  0  0  0  0  0  0  0  0
  1  2  1  0
  3  2  1  6
  3  4  1  0
  4  5  1  0
  5  6  1  6
  6  7  1  0
  7  8  2  0
  8  9  1  0
  9 10  2  0
 10 11  1  0
 11 12  2  0
 12 13  1  0
 13 14  1  0
 14 15  1  0
 15 16  1  6
  5 17  1  0
 17 18  1  0
 18 19  1  1
 18  3  1  0
 10  6  1  0
 15  9  1  0
M  END
>  <zinc_id>  (1) 
ZINC000003806262

>  <smiles>  (1) 
OC[C@H]1O[C@@H](n2cnc3c2N=CNC[C@H]3O)C[C@@H]1O

$$$$
