
     RDKit          3D

 27 29  0  0  0  0  0  0  0  0999 V2000
    5.9929    1.4034    2.0582 N   0  0  0  0  0  0  0  0  0  0  0  0
    6.1620    0.3164    1.1433 C   0  0  0  0  0  0  0  0  0  0  0  0
    6.9414   -0.7864    1.4700 C   0  0  0  0  0  0  0  0  0  0  0  0
    7.0627   -1.8499    0.5845 C   0  0  0  0  0  0  0  0  0  0  0  0
    7.1008   -3.1226    1.0752 F   0  0  0  0  0  0  0  0  0  0  0  0
    6.7054   -1.5771   -0.7277 C   0  0  0  0  0  0  0  0  0  0  0  0
    5.8328   -0.5363   -1.0214 C   0  0  0  0  0  0  0  0  0  0  0  0
    5.4459    0.3738   -0.0460 C   0  0  0  0  0  0  0  0  0  0  0  0
    4.1186    0.9148   -0.0408 N   0  0  0  0  0  0  0  0  0  0  0  0
    3.0026    0.2188   -0.5748 C   0  0  0  0  0  0  0  0  0  0  0  0
    3.2642   -0.6365   -1.4746 O   0  0  0  0  0  0  0  0  0  0  0  0
    1.7519    0.0210    0.1385 C   0  0  0  0  0  0  0  0  0  0  0  0
    1.1834    0.9063    0.9205 C   0  0  0  0  0  0  0  0  0  0  0  0
   -0.2766    1.0601    0.9482 C   0  0  0  0  0  0  0  0  0  0  0  0
   -0.8651    2.2809    1.2550 C   0  0  0  0  0  0  0  0  0  0  0  0
   -2.1533    2.1944    0.8428 N   0  0  0  0  0  0  0  0  0  0  0  0
   -2.2141    1.2994   -0.1422 N   0  0  0  0  0  0  0  0  0  0  0  0
   -3.1770    1.2449   -1.2334 C   0  0  0  0  0  0  0  0  0  0  0  0
   -4.2560    0.2708   -0.9909 C   0  0  0  0  0  0  0  0  0  0  0  0
   -4.8762    0.1123    0.1667 C   0  0  0  0  0  0  0  0  0  0  0  0
   -6.2446   -0.4144    0.0903 C   0  0  0  0  0  0  0  0  0  0  0  0
   -6.5972   -1.6418    0.6204 C   0  0  0  0  0  0  0  0  0  0  0  0
   -7.9195   -1.9603    0.8355 C   0  0  0  0  0  0  0  0  0  0  0  0
   -8.9495   -1.1137    0.4471 C   0  0  0  0  0  0  0  0  0  0  0  0
   -8.5627    0.1641    0.0624 C   0  0  0  0  0  0  0  0  0  0  0  0
   -7.2525    0.4317   -0.3141 C   0  0  0  0  0  0  0  0  0  0  0  0
   -1.2202    0.4258    0.1492 C   0  0  0  0  0  0  0  0  0  0  0  0
  1  2  1  0
  2  3  2  0
  3  4  1  0
  4  5  1  0
  4  6  2  0
  6  7  1  0
  7  8  2  0
  8  9  1  0
  9 10  1  0
 10 11  2  0
 10 12  1  0
 12 13  2  0
 13 14  1  0
 14 15  1  0
 15 16  2  0
 16 17  1  0
 17 18  1  0
 18 19  1  0
 19 20  2  0
 20 21  1  0
 21 22  2  0
 22 23  1  0
 23 24  2  0
 24 25  1  0
 25 26  2  0
 17 27  1  0
  8  2  1  0
 27 14  2  0
 26 21  1  0
M  END
>  <zinc_id>  (1) 
ZINC000095616594

>  <smiles>  (1) 
Nc1cc(F)ccc1NC(=O)/C=C/c1cnn(C/C=C/c2ccccc2)c1

$$$$
