
     RDKit          3D

 37 41  0  0  0  0  0  0  0  0999 V2000
    1.9523    1.7196    0.1804 C   0  0  0  0  0  0  0  0  0  0  0  0
    2.6781    0.5007   -0.1683 N   0  0  0  0  0  0  0  0  0  0  0  0
    4.0435    0.6494   -0.4865 C   0  0  0  0  0  0  0  0  0  0  0  0
    4.3211    1.4380   -1.4400 O   0  0  0  0  0  0  0  0  0  0  0  0
    5.0795   -0.3297   -0.1473 C   0  0  0  0  0  0  0  0  0  0  0  0
    5.6246   -1.1835   -1.0985 C   0  0  0  0  0  0  0  0  0  0  0  0
    6.9291   -1.6515   -1.0053 C   0  0  0  0  0  0  0  0  0  0  0  0
    7.8278   -0.9575   -0.2052 C   0  0  0  0  0  0  0  0  0  0  0  0
    9.1282   -0.8401   -0.5262 F   0  0  0  0  0  0  0  0  0  0  0  0
    7.2663   -0.3504    0.9118 C   0  0  0  0  0  0  0  0  0  0  0  0
    5.9115   -0.0398    0.9282 C   0  0  0  0  0  0  0  0  0  0  0  0
    5.2566    0.4888    2.1605 C   0  0  0  0  0  0  0  0  0  0  0  0
    5.0807    1.8546    2.1118 F   0  0  0  0  0  0  0  0  0  0  0  0
    4.0975   -0.1899    2.4656 F   0  0  0  0  0  0  0  0  0  0  0  0
    6.1322    0.2463    3.2150 F   0  0  0  0  0  0  0  0  0  0  0  0
    1.8606   -0.6203   -0.6123 C   0  0  0  0  0  0  0  0  0  0  0  0
    1.2276   -0.3390   -1.9443 C   0  0  0  0  0  0  0  0  0  0  0  0
   -0.2008   -0.7994   -2.0373 C   0  0  0  0  0  0  0  0  0  0  0  0
   -1.0064   -0.0601   -1.0701 N   0  0  0  0  0  0  0  0  0  0  0  0
   -2.4176   -0.2930   -0.9884 C   0  0  0  0  0  0  0  0  0  0  0  0
   -2.8011   -1.2368   -0.0952 N   0  0  0  0  0  0  0  0  0  0  0  0
   -4.0631   -1.3851    0.2882 N   0  0  0  0  0  0  0  0  0  0  0  0
   -4.9423   -0.3552    0.2380 C   0  0  0  0  0  0  0  0  0  0  0  0
   -6.3217   -0.4899    0.7218 C   0  0  0  0  0  0  0  0  0  0  0  0
   -6.7099   -0.3758    2.0498 C   0  0  0  0  0  0  0  0  0  0  0  0
   -7.9347   -0.9994    2.2157 C   0  0  0  0  0  0  0  0  0  0  0  0
   -8.3474   -1.2873    0.9630 N   0  0  0  0  0  0  0  0  0  0  0  0
   -7.2905   -1.2484    0.1565 N   0  0  0  0  0  0  0  0  0  0  0  0
   -7.2969   -1.7985   -1.1702 C   0  0  0  0  0  0  0  0  0  0  0  0
   -4.5767    0.6944   -0.5955 C   0  0  0  0  0  0  0  0  0  0  0  0
   -5.5780    1.5824   -0.9667 C   0  0  0  0  0  0  0  0  0  0  0  0
   -5.1992    2.6402   -1.7837 C   0  0  0  0  0  0  0  0  0  0  0  0
   -3.8597    2.8941   -2.0512 C   0  0  0  0  0  0  0  0  0  0  0  0
   -2.9188    1.9200   -1.7598 C   0  0  0  0  0  0  0  0  0  0  0  0
   -3.3443    0.7094   -1.2368 C   0  0  0  0  0  0  0  0  0  0  0  0
   -0.3517    0.2583    0.1963 C   0  0  0  0  0  0  0  0  0  0  0  0
    0.7436   -0.7656    0.4142 C   0  0  0  0  0  0  0  0  0  0  0  0
  1  2  1  0
  2  3  1  0
  3  4  2  0
  3  5  1  0
  5  6  2  0
  6  7  1  0
  7  8  2  0
  8  9  1  0
  8 10  1  0
 10 11  2  0
 11 12  1  0
 12 13  1  0
 12 14  1  0
 12 15  1  0
  2 16  1  0
 16 17  1  0
 17 18  1  0
 18 19  1  0
 19 20  1  0
 20 21  2  0
 21 22  1  0
 22 23  2  0
 23 24  1  0
 24 25  2  0
 25 26  1  0
 26 27  2  0
 27 28  1  0
 28 29  1  0
 23 30  1  0
 30 31  2  0
 31 32  1  0
 32 33  2  0
 33 34  1  0
 34 35  2  0
 19 36  1  0
 36 37  1  0
 11  5  1  0
 37 16  1  0
 35 20  1  0
 28 24  1  0
 35 30  1  0
M  END
>  <zinc_id>  (1) 
ZINC000068247898

>  <smiles>  (1) 
CN(C(=O)c1ccc(F)cc1C(F)(F)F)C1CCN(c2nnc(-c3ccnn3C)c3ccccc23)CC1

$$$$
