REMARK SMILES NS(=O)(=O)c1cccc2c1c([N+](=O)[O-])cc1[nH]c(=O)c(=O)[nH]c12
REMARK SMILES IDX 5 1 6 2 7 3 8 4 9 5 23 6 22 7 20 8 21 9 18 10 19 11 17 12
REMARK SMILES IDX 16 13 15 14 11 15 10 16 2 17 1 18 3 19 4 20 12 21 13 22
REMARK SMILES IDX 14 23
REMARK H PARENT
REMARK Flexibility Score: inf
ROOT
ATOM      1  C   UNL     1      -2.056  -0.836  -0.043  1.00  0.00     0.097 A 
ATOM      2  C   UNL     1      -2.175  -2.212  -0.230  1.00  0.00    -0.041 A 
ATOM      3  C   UNL     1      -1.146  -2.970  -0.777  1.00  0.00    -0.060 A 
ATOM      4  C   UNL     1       0.149  -2.483  -0.650  1.00  0.00    -0.052 A 
ATOM      5  C   UNL     1       0.336  -1.144  -0.375  1.00  0.00     0.016 A 
ATOM      6  C   UNL     1       1.597  -0.560  -0.431  1.00  0.00     0.074 A 
ATOM      7  N   UNL     1       2.600  -1.316   0.072  1.00  0.00    -0.315 N 
ATOM      8  C   UNL     1       3.701  -0.697   0.566  1.00  0.00     0.314 A 
ATOM      9  O   UNL     1       4.452  -1.218   1.427  1.00  0.00    -0.263 OA
ATOM     10  C   UNL     1       3.853   0.664   0.341  1.00  0.00     0.314 A 
ATOM     11  O   UNL     1       4.845   1.271   0.833  1.00  0.00    -0.263 OA
ATOM     12  N   UNL     1       2.840   1.381  -0.193  1.00  0.00    -0.316 N 
ATOM     13  C   UNL     1       1.635   0.822  -0.432  1.00  0.00     0.073 A 
ATOM     14  C   UNL     1       0.520   1.602  -0.713  1.00  0.00     0.042 A 
ATOM     15  C   UNL     1      -0.719   1.049  -0.421  1.00  0.00     0.280 A 
ATOM     16  C   UNL     1      -0.797  -0.338  -0.362  1.00  0.00     0.082 A 
ENDROOT
BRANCH   1  17
ATOM     17  S   UNL     1      -3.102   0.149   0.885  1.00  0.00     0.238 S 
ATOM     18  N   UNL     1      -2.388   1.119   2.103  1.00  0.00    -0.225 NA
ATOM     19  O   UNL     1      -4.350   0.637   0.289  1.00  0.00    -0.207 OA
ATOM     20  O   UNL     1      -3.711  -0.894   1.829  1.00  0.00    -0.207 OA
ENDBRANCH   1  17
BRANCH  15  21
ATOM     21  N   UNL     1      -1.952   1.679  -0.823  1.00  0.00     0.063 N 
ATOM     22  O   UNL     1      -1.885   2.941  -0.744  1.00  0.00    -0.258 OA
ATOM     23  O   UNL     1      -2.248   1.352  -2.150  1.00  0.00    -0.258 OA
ENDBRANCH  15  21
TORSDOF 2

