REMARK SMILES COCCN1CCN(Cc2ccc(-c3[nH]nc4c3C(=O)c3c(NC(=O)NN5CCOCC5)cccc3-4)cc2)CC1
REMARK SMILES IDX 9 1 8 2 5 3 6 4 40 5 7 6 39 7 4 8 3 9 2 10 1 11 10 12 11 13
REMARK SMILES IDX 38 14 12 15 37 16 13 17 14 18 15 19 18 20 16 21 17 22 19 23
REMARK SMILES IDX 36 24 20 25 21 26 35 27 22 28 34 29 33 30 23 31 24 32 25 33
REMARK SMILES IDX 26 34 27 35 28 36 32 37 29 38 31 39 30 40
REMARK H PARENT
REMARK Flexibility Score: inf
ROOT
ATOM      1  C   UNL     1      -4.916  -2.338   1.323  1.00  0.00     0.023 C 
ENDROOT
BRANCH   1   2
ATOM      2  N   UNL     1      -5.905  -1.544   0.641  1.00  0.00    -0.297 NA
ATOM      3  N   UNL     1      -7.992   0.433   0.670  1.00  0.00    -0.299 NA
ATOM      4  C   UNL     1      -6.680   0.733   1.174  1.00  0.00     0.011 C 
ATOM      5  C   UNL     1      -8.226  -0.975   0.467  1.00  0.00     0.011 C 
ATOM      6  C   UNL     1      -5.597  -0.139   0.605  1.00  0.00     0.011 C 
ATOM      7  C   UNL     1      -7.198  -1.783   1.230  1.00  0.00     0.011 C 
BRANCH   3   8
ATOM      8  C   UNL     1      -8.394   1.250  -0.442  1.00  0.00     0.022 C 
BRANCH   8   9
ATOM      9  C   UNL     1      -7.409   2.329  -0.790  1.00  0.00     0.059 C 
BRANCH   9  10
ATOM     10  O   UNL     1      -7.484   3.321   0.188  1.00  0.00    -0.383 OA
ATOM     11  C   UNL     1      -6.626   4.382  -0.143  1.00  0.00     0.036 C 
ENDBRANCH   9  10
ENDBRANCH   8   9
ENDBRANCH   3   8
ENDBRANCH   1   2
BRANCH   1  12
ATOM     12  C   UNL     1      -3.805  -2.768   0.421  1.00  0.00    -0.034 A 
ATOM     13  C   UNL     1      -2.524  -2.985   0.915  1.00  0.00    -0.057 A 
ATOM     14  C   UNL     1      -3.885  -2.637  -0.960  1.00  0.00    -0.057 A 
ATOM     15  C   UNL     1      -1.413  -2.601   0.172  1.00  0.00    -0.052 A 
ATOM     16  C   UNL     1      -2.781  -2.200  -1.683  1.00  0.00    -0.052 A 
ATOM     17  C   UNL     1      -1.542  -2.014  -1.081  1.00  0.00     0.000 A 
BRANCH  17  18
ATOM     18  C   UNL     1      -0.683  -0.903  -1.511  1.00  0.00     0.077 A 
ATOM     19  N   UNL     1      -1.015   0.148  -2.301  1.00  0.00    -0.276 N 
ATOM     20  C   UNL     1       0.423  -0.445  -0.805  1.00  0.00     0.076 A 
ATOM     21  N   UNL     1      -0.484   1.254  -1.795  1.00  0.00    -0.174 NA
ATOM     22  C   UNL     1       0.558   0.925  -0.995  1.00  0.00     0.105 A 
ATOM     23  C   UNL     1       1.563  -0.925  -0.027  1.00  0.00     0.200 C 
ATOM     24  C   UNL     1       1.548   1.398  -0.020  1.00  0.00     0.016 A 
ATOM     25  O   UNL     1       1.786  -2.096   0.348  1.00  0.00    -0.288 OA
ATOM     26  C   UNL     1       2.202   0.282   0.488  1.00  0.00     0.056 A 
ATOM     27  C   UNL     1       1.880   2.656   0.430  1.00  0.00    -0.052 A 
ATOM     28  C   UNL     1       3.313   0.394   1.312  1.00  0.00     0.054 A 
ATOM     29  C   UNL     1       2.918   2.786   1.317  1.00  0.00    -0.059 A 
ATOM     30  C   UNL     1       3.576   1.666   1.804  1.00  0.00    -0.038 A 
BRANCH  28  31
ATOM     31  N   UNL     1       4.353  -0.578   1.150  1.00  0.00    -0.306 N 
ATOM     32  C   UNL     1       5.337  -0.333   0.139  1.00  0.00     0.333 C 
ATOM     33  O   UNL     1       5.026   0.316  -0.904  1.00  0.00    -0.247 OA
ATOM     34  N   UNL     1       6.700  -0.681   0.293  1.00  0.00    -0.270 N 
BRANCH  34  35
ATOM     35  N   UNL     1       7.718  -0.192  -0.550  1.00  0.00    -0.215 NA
ATOM     36  C   UNL     1       7.629   1.263  -0.647  1.00  0.00     0.042 C 
ATOM     37  C   UNL     1       8.974  -0.505   0.125  1.00  0.00     0.042 C 
ATOM     38  C   UNL     1       8.971   1.889  -0.307  1.00  0.00     0.061 C 
ATOM     39  C   UNL     1      10.148  -0.044  -0.692  1.00  0.00     0.061 C 
ATOM     40  O   UNL     1       9.935   1.260  -1.111  1.00  0.00    -0.379 OA
ENDBRANCH  34  35
ENDBRANCH  28  31
ENDBRANCH  17  18
ENDBRANCH   1  12
TORSDOF 8

