REMARK SMILES Nc1ncn([C@@H]2O[C@H](CO)[C@@H](O)[C@H]2O)c(=O)n1
REMARK SMILES IDX 6 1 7 2 8 3 11 4 12 5 13 6 14 7 5 8 1 9 2 10 3 11 17 12 4 13
REMARK SMILES IDX 15 14 16 15 9 16 10 17
REMARK H PARENT
REMARK Flexibility Score: inf
ROOT
ATOM      1  C   UNL     1      -0.354   0.079  -0.768  1.00  0.00     0.168 C 
ATOM      2  O   UNL     1      -0.837   0.429   0.623  1.00  0.00    -0.346 OA
ATOM      3  C   UNL     1      -1.974   1.080  -0.122  1.00  0.00     0.112 C 
ATOM      4  C   UNL     1      -2.694  -0.458   0.001  1.00  0.00     0.113 C 
ATOM      5  O   UNL     1      -3.685  -0.116  -1.069  1.00  0.00    -0.387 OA
ATOM      6  C   UNL     1      -1.494  -1.190  -0.960  1.00  0.00     0.128 C 
ATOM      7  O   UNL     1      -1.888  -0.621  -2.288  1.00  0.00    -0.386 OA
ENDROOT
BRANCH   1   8
ATOM      8  N   UNL     1       0.797  -0.888  -0.265  1.00  0.00    -0.253 N 
ATOM      9  N   UNL     1       4.403   0.830  -0.429  1.00  0.00    -0.368 N 
ATOM     10  C   UNL     1       3.486  -0.224  -0.206  1.00  0.00     0.226 A 
ATOM     11  N   UNL     1       2.989  -1.003  -1.199  1.00  0.00    -0.203 NA
ATOM     12  N   UNL     1       2.798  -0.386   0.937  1.00  0.00    -0.157 NA
ATOM     13  C   UNL     1       1.658  -1.274  -1.242  1.00  0.00     0.105 A 
ATOM     14  C   UNL     1       1.457  -0.465   0.831  1.00  0.00     0.354 A 
ATOM     15  O   UNL     1       0.688  -0.267   1.810  1.00  0.00    -0.245 OA
ENDBRANCH   1   8
BRANCH   3  16
ATOM     16  C   UNL     1      -2.695   1.549   1.277  1.00  0.00     0.072 C 
ATOM     17  O   UNL     1      -2.655   2.924   1.212  1.00  0.00    -0.394 OA
ENDBRANCH   3  16
TORSDOF 2

