
     RDKit          3D

 10 10  0  0  0  0  0  0  0  0999 V2000
    2.1434    0.0310    1.1250 O   0  0  0  0  0  0  0  0  0  0  0  0
    1.6593   -0.5761    0.1221 C   0  0  0  0  0  0  0  0  0  0  0  0
    2.4709   -0.6143   -1.0162 O   0  0  0  0  0  0  0  0  0  0  0  0
    0.2226   -0.3934   -0.0831 C   0  0  0  0  0  0  0  0  0  0  0  0
   -0.6868   -1.3764    0.2704 C   0  0  0  0  0  0  0  0  0  0  0  0
   -2.0104   -1.1830   -0.0943 C   0  0  0  0  0  0  0  0  0  0  0  0
   -2.5196    0.1000    0.0628 C   0  0  0  0  0  0  0  0  0  0  0  0
   -1.6080    1.1445   -0.0260 C   0  0  0  0  0  0  0  0  0  0  0  0
   -0.2697    0.8942   -0.2489 C   0  0  0  0  0  0  0  0  0  0  0  0
    0.5984    1.9735   -0.1118 O   0  0  0  0  0  0  0  0  0  0  0  0
  1  2  2  0
  2  3  1  0
  2  4  1  0
  4  5  2  0
  5  6  1  0
  6  7  2  0
  7  8  1  0
  8  9  2  0
  9 10  1  0
  9  4  1  0
M  END
>  <zinc_id>  (1) 
ZINC000000001554

>  <smiles>  (1) 
O=C(O)c1ccccc1O

$$$$
