REMARK SMILES C[C@H]1C[C@H](C)C(=O)[C@H]([C@H](O)CC2CC(=O)NC(=O)C2)C1
REMARK SMILES IDX 9 1 10 2 8 3 1 4 2 5 3 6 20 7 4 8 5 9 6 10 7 11 11 12 12 13
REMARK SMILES IDX 13 14 19 15 14 16 17 17 15 18 16 19 18 20
REMARK H PARENT
REMARK Flexibility Score: inf
ROOT
ATOM      1  C   UNL     1      -0.346  -0.626   0.497  1.00  0.00     0.064 C 
ATOM      2  O   UNL     1       0.426   0.640   0.774  1.00  0.00    -0.392 OA
ENDROOT
BRANCH   1   3
ATOM      3  C   UNL     1      -1.329   0.189  -0.640  1.00  0.00     0.044 C 
ATOM      4  C   UNL     1      -4.220   2.160   0.138  1.00  0.00    -0.062 C 
ATOM      5  C   UNL     1      -3.789   0.600  -0.067  1.00  0.00    -0.043 C 
ATOM      6  C   UNL     1      -3.406   0.840  -1.633  1.00  0.00    -0.041 C 
ATOM      7  C   UNL     1      -2.280   0.842   0.494  1.00  0.00    -0.038 C 
ATOM      8  C   UNL     1      -3.152  -0.694  -2.147  1.00  0.00     0.015 C 
ATOM      9  C   UNL     1      -4.578  -1.219  -1.540  1.00  0.00    -0.056 C 
ATOM     10  C   UNL     1      -2.259  -1.083  -0.874  1.00  0.00     0.141 C 
ATOM     11  O   UNL     1      -2.680  -1.691   0.027  1.00  0.00    -0.299 OA
ENDBRANCH   1   3
BRANCH   1  12
ATOM     12  C   UNL     1       0.666  -1.117  -0.691  1.00  0.00    -0.022 C 
BRANCH  12  13
ATOM     13  C   UNL     1       2.050  -0.715  -0.367  1.00  0.00    -0.021 C 
ATOM     14  C   UNL     1       2.423   0.637  -0.902  1.00  0.00     0.030 C 
ATOM     15  C   UNL     1       2.481  -0.952   1.047  1.00  0.00     0.030 C 
ATOM     16  C   UNL     1       3.478   1.319  -0.131  1.00  0.00     0.226 C 
ATOM     17  C   UNL     1       3.954  -0.718   1.104  1.00  0.00     0.226 C 
ATOM     18  O   UNL     1       3.465   2.583  -0.018  1.00  0.00    -0.275 OA
ATOM     19  N   UNL     1       4.394   0.578   0.683  1.00  0.00    -0.296 N 
ATOM     20  O   UNL     1       4.701  -1.573   1.615  1.00  0.00    -0.275 OA
ENDBRANCH  12  13
ENDBRANCH   1  12
TORSDOF 3

