REMARK SMILES O=C(NCc1ccc2c(c1)OCO2)c1c(Cl)cccc1Cl
REMARK SMILES IDX 1 1 2 2 3 3 14 4 15 5 20 6 16 7 17 8 19 9 21 10 18 11 4 12
REMARK SMILES IDX 5 13 6 14 10 15 7 16 9 17 8 18 11 19 13 20 12 21
REMARK H PARENT
REMARK Flexibility Score: inf
ROOT
ATOM      1  O   UNL     1      -0.122   0.821   0.096  1.00  0.00    -0.269 OA
ATOM      2  C   UNL     1      -1.118   0.042   0.192  1.00  0.00     0.254 C 
ATOM      3  N   UNL     1      -0.824  -1.348   0.025  1.00  0.00    -0.348 N 
ENDROOT
BRANCH   2   4
ATOM      4  C   UNL     1      -2.485   0.559   0.031  1.00  0.00     0.077 A 
ATOM      5  C   UNL     1      -3.503   0.009   0.802  1.00  0.00     0.055 A 
ATOM      6  C   UNL     1      -2.899   1.145  -1.159  1.00  0.00     0.055 A 
ATOM      7  Cl  UNL     1      -3.116  -0.403   2.459  1.00  0.00    -0.083 Cl
ATOM      8  C   UNL     1      -4.789  -0.160   0.304  1.00  0.00    -0.043 A 
ATOM      9  C   UNL     1      -4.146   0.869  -1.705  1.00  0.00    -0.043 A 
ATOM     10  Cl  UNL     1      -1.669   1.990  -2.088  1.00  0.00    -0.083 Cl
ATOM     11  C   UNL     1      -5.034   0.024  -1.052  1.00  0.00    -0.059 A 
ENDBRANCH   2   4
BRANCH   3  12
ATOM     12  C   UNL     1       0.262  -1.848  -0.770  1.00  0.00     0.043 C 
BRANCH  12  13
ATOM     13  C   UNL     1       1.594  -1.571  -0.196  1.00  0.00    -0.025 A 
ATOM     14  C   UNL     1       1.707  -1.491   1.187  1.00  0.00    -0.053 A 
ATOM     15  C   UNL     1       2.660  -1.084  -0.934  1.00  0.00    -0.011 A 
ATOM     16  C   UNL     1       2.801  -0.871   1.750  1.00  0.00    -0.016 A 
ATOM     17  C   UNL     1       3.629  -0.268  -0.367  1.00  0.00     0.166 A 
ATOM     18  C   UNL     1       3.619  -0.035   1.001  1.00  0.00     0.165 A 
ATOM     19  O   UNL     1       4.510   0.685  -0.874  1.00  0.00    -0.454 OA
ATOM     20  O   UNL     1       4.288   1.165   1.251  1.00  0.00    -0.454 OA
ATOM     21  C   UNL     1       4.633   1.769   0.013  1.00  0.00     0.231 C 
ENDBRANCH  12  13
ENDBRANCH   3  12
TORSDOF 3

