
     RDKit          3D

 16 18  0  0  0  0  0  0  0  0999 V2000
   -1.4007    3.1379    0.5390 C   0  0  0  0  0  0  0  0  0  0  0  0
   -0.6997    2.0179    1.0111 O   0  0  0  0  0  0  0  0  0  0  0  0
   -0.5491    0.8900    0.2323 C   0  0  0  0  0  0  0  0  0  0  0  0
   -1.6839    0.1252   -0.0122 C   0  0  0  0  0  0  0  0  0  0  0  0
   -2.8538   -0.0140    0.5887 O   0  0  0  0  0  0  0  0  0  0  0  0
   -3.3516   -1.1951    0.2875 C   0  0  0  0  0  0  0  0  0  0  0  0
   -2.6645   -1.6540   -0.8274 C   0  0  0  0  0  0  0  0  0  0  0  0
   -1.5249   -0.8769   -0.9605 C   0  0  0  0  0  0  0  0  0  0  0  0
   -0.2634   -1.2066   -1.4310 C   0  0  0  0  0  0  0  0  0  0  0  0
    0.8634   -0.5054   -1.0369 C   0  0  0  0  0  0  0  0  0  0  0  0
    2.1435   -0.8726   -1.3577 C   0  0  0  0  0  0  0  0  0  0  0  0
    3.1511   -0.6508   -0.4281 C   0  0  0  0  0  0  0  0  0  0  0  0
    2.8782    0.0101    0.7587 C   0  0  0  0  0  0  0  0  0  0  0  0
    3.4817   -0.2949    1.8301 O   0  0  0  0  0  0  0  0  0  0  0  0
    1.7454    0.6843    0.8020 O   0  0  0  0  0  0  0  0  0  0  0  0
    0.7282    0.4050    0.0043 C   0  0  0  0  0  0  0  0  0  0  0  0
  1  2  1  0
  2  3  1  0
  3  4  2  0
  4  5  1  0
  5  6  1  0
  6  7  2  0
  7  8  1  0
  8  9  2  0
  9 10  1  0
 10 11  1  0
 11 12  2  0
 12 13  1  0
 13 14  2  0
 13 15  1  0
 15 16  1  0
 16  3  1  0
  8  4  1  0
 16 10  2  0
M  END
>  <zinc_id>  (1) 
ZINC000002548959

>  <smiles>  (1) 
COc1c2occc2cc2ccc(=O)oc12

$$$$
