
     RDKit          3D

 36 43  0  0  0  0  0  0  0  0999 V2000
   -5.0053   -2.4537    0.1376 C   0  0  0  0  0  0  0  0  0  0  0  0
   -4.5008   -2.3252    0.0556 N   0  0  0  0  0  0  0  0  0  0  0  0
   -3.6676   -1.5973   -1.0404 C   0  0  2  0  0  0  0  0  0  0  0  0
   -2.2660   -2.2970   -0.6125 C   0  0  0  0  0  0  0  0  0  0  0  0
   -1.2809   -1.8129   -1.8526 C   0  0  1  0  0  0  0  0  0  0  0  0
   -1.7736   -0.3957   -1.8760 O   0  0  0  0  0  0  0  0  0  0  0  0
   -2.1889    0.2894   -0.9522 C   0  0  1  0  0  0  0  0  0  0  0  0
   -2.9054    1.4469   -1.6807 C   0  0  0  0  0  0  0  0  0  0  0  0
   -3.4671   -0.1863   -0.0708 C   0  0  2  0  0  0  0  0  0  0  0  0
   -2.6029   -0.7978    1.0064 O   0  0  0  0  0  0  0  0  0  0  0  0
   -3.3997   -1.0667    2.0822 C   0  0  0  0  0  0  0  0  0  0  0  0
   -1.2793    0.9770   -0.0294 N   0  0  0  0  0  0  0  0  0  0  0  0
   -1.3031    2.2681    0.3236 C   0  0  0  0  0  0  0  0  0  0  0  0
   -2.3844    3.1244    0.2535 C   0  0  0  0  0  0  0  0  0  0  0  0
   -2.1604    4.4661    0.4485 C   0  0  0  0  0  0  0  0  0  0  0  0
   -0.9166    4.9556    0.1093 C   0  0  0  0  0  0  0  0  0  0  0  0
    0.1810    4.1445    0.3489 C   0  0  0  0  0  0  0  0  0  0  0  0
   -0.0204    2.7762    0.4988 C   0  0  0  0  0  0  0  0  0  0  0  0
    0.8190    1.7107    0.2631 C   0  0  0  0  0  0  0  0  0  0  0  0
    2.1840    1.6077    0.0240 C   0  0  0  0  0  0  0  0  0  0  0  0
    2.7306    0.3942   -0.0228 C   0  0  0  0  0  0  0  0  0  0  0  0
    1.9506   -0.6706   -0.4566 C   0  0  0  0  0  0  0  0  0  0  0  0
    2.1459   -2.0036   -0.6945 C   0  0  0  0  0  0  0  0  0  0  0  0
    3.2043   -2.8169   -0.3115 C   0  0  0  0  0  0  0  0  0  0  0  0
    3.0558   -4.1618   -0.5557 C   0  0  0  0  0  0  0  0  0  0  0  0
    1.8857   -4.7056   -1.0186 C   0  0  0  0  0  0  0  0  0  0  0  0
    0.7993   -3.9006   -1.2688 C   0  0  0  0  0  0  0  0  0  0  0  0
    0.8980   -2.5433   -0.9914 C   0  0  0  0  0  0  0  0  0  0  0  0
   -0.0564   -1.5853   -0.8619 N   0  0  0  0  0  0  0  0  0  0  0  0
    0.6151   -0.4522   -0.6893 C   0  0  0  0  0  0  0  0  0  0  0  0
    0.0293    0.6063    0.0168 C   0  0  0  0  0  0  0  0  0  0  0  0
    4.1615    0.5200    0.1112 C   0  0  0  0  0  0  0  0  0  0  0  0
    5.0288   -0.3957   -0.0213 O   0  0  0  0  0  0  0  0  0  0  0  0
    4.2367    1.4623    1.1881 N   0  0  0  0  0  0  0  0  0  0  0  0
    3.2425    2.6175    0.7271 C   0  0  1  0  0  0  0  0  0  0  0  0
    4.0109    2.8012   -0.5866 O   0  0  0  0  0  0  0  0  0  0  0  0
  1  2  1  0
  3  2  1  1
  3  4  1  0
  5  4  1  1
  5  6  1  0
  6  7  1  0
  7  8  1  6
  7  9  1  0
  9 10  1  1
 10 11  1  0
  7 12  1  0
 12 13  1  0
 13 14  2  0
 14 15  1  0
 15 16  2  0
 16 17  1  0
 17 18  2  0
 18 19  1  0
 19 20  2  0
 20 21  1  0
 21 22  2  0
 22 23  1  0
 23 24  2  0
 24 25  1  0
 25 26  2  0
 26 27  1  0
 27 28  2  0
 28 29  1  0
 29 30  1  0
 30 31  2  0
 21 32  1  0
 32 33  2  0
 32 34  1  0
 34 35  1  0
 35 36  1  6
  9  3  1  0
 31 12  1  0
 29  5  1  0
 18 13  1  0
 31 19  1  0
 35 20  1  0
 30 22  1  0
 28 23  1  0
M  END
>  <zinc_id>  (1) 
ZINC000033901069

>  <smiles>  (1) 
CN[C@@H]1C[C@H]2O[C@@](C)([C@@H]1OC)n1c3ccccc3c3c4c(c5c6ccccc6n2c5c31)C(=O)N[C@H]4O

$$$$
