REMARK SMILES OCCn1cc(-c2cnc3nnn(Cc4ccc5ncccc5c4)c3n2)cn1
REMARK SMILES IDX 7 1 8 2 9 3 10 4 11 5 12 6 13 7 25 8 26 9 6 10 4 11 5 12
REMARK SMILES IDX 28 13 27 14 3 15 2 16 1 17 14 18 15 19 16 20 24 21 17 22
REMARK SMILES IDX 23 23 18 24 22 25 19 26 21 27 20 28
REMARK H PARENT
REMARK Flexibility Score: inf
ROOT
ATOM      1  C   UNL     1       2.590  -1.230   1.205  1.00  0.00     0.094 A 
ATOM      2  C   UNL     1       2.650  -2.478   1.815  1.00  0.00     0.056 A 
ATOM      3  N   UNL     1       1.615  -3.352   1.754  1.00  0.00    -0.230 NA
ATOM      4  C   UNL     1       0.403  -2.873   1.379  1.00  0.00     0.221 A 
ATOM      5  N   UNL     1      -0.759  -3.445   0.989  1.00  0.00    -0.108 NA
ATOM      6  N   UNL     1      -1.555  -2.482   0.525  1.00  0.00    -0.063 NA
ATOM      7  N   UNL     1      -1.056  -1.294   0.813  1.00  0.00    -0.221 N 
ATOM      8  C   UNL     1       0.244  -1.517   1.120  1.00  0.00     0.198 A 
ATOM      9  N   UNL     1       1.341  -0.722   1.068  1.00  0.00    -0.224 NA
ENDROOT
BRANCH   1  10
ATOM     10  C   UNL     1       3.715  -0.728   0.405  1.00  0.00     0.040 A 
ATOM     11  N   UNL     1       5.526   0.408  -0.250  1.00  0.00    -0.270 N 
ATOM     12  C   UNL     1       4.531   0.365   0.668  1.00  0.00     0.034 A 
ATOM     13  N   UNL     1       5.408  -0.728  -0.936  1.00  0.00    -0.181 NA
ATOM     14  C   UNL     1       4.133  -1.179  -0.841  1.00  0.00     0.058 A 
BRANCH  11  15
ATOM     15  C   UNL     1       6.254   1.604  -0.663  1.00  0.00     0.064 C 
BRANCH  15  16
ATOM     16  C   UNL     1       6.780   2.313   0.554  1.00  0.00     0.063 C 
ATOM     17  O   UNL     1       7.582   3.383   0.130  1.00  0.00    -0.394 OA
ENDBRANCH  15  16
ENDBRANCH  11  15
ENDBRANCH   1  10
BRANCH   7  18
ATOM     18  C   UNL     1      -1.738  -0.053   1.131  1.00  0.00     0.070 C 
BRANCH  18  19
ATOM     19  C   UNL     1      -3.095  -0.043   0.502  1.00  0.00    -0.026 A 
ATOM     20  C   UNL     1      -3.337  -0.633  -0.732  1.00  0.00    -0.055 A 
ATOM     21  C   UNL     1      -3.913   1.020   0.844  1.00  0.00    -0.048 A 
ATOM     22  C   UNL     1      -4.191  -0.012  -1.633  1.00  0.00    -0.035 A 
ATOM     23  C   UNL     1      -4.846   1.566  -0.002  1.00  0.00     0.000 A 
ATOM     24  C   UNL     1      -4.869   1.155  -1.328  1.00  0.00     0.070 A 
ATOM     25  C   UNL     1      -5.718   2.572   0.390  1.00  0.00    -0.051 A 
ATOM     26  N   UNL     1      -5.289   2.022  -2.280  1.00  0.00    -0.256 NA
ATOM     27  C   UNL     1      -6.331   3.321  -0.605  1.00  0.00    -0.043 A 
ATOM     28  C   UNL     1      -6.076   3.039  -1.928  1.00  0.00     0.028 A 
ENDBRANCH  18  19
ENDBRANCH   7  18
TORSDOF 5

