REMARK SMILES N#CC1(c2ccc(NC(=O)c3cccnc3NCc3ccncc3)cc2)CCCC1
REMARK SMILES IDX 11 1 12 2 13 3 14 4 15 5 16 6 9 7 8 8 10 9 7 10 4 11 5 12
REMARK SMILES IDX 26 13 6 14 25 15 3 16 27 17 30 18 28 19 29 20 2 21 1 22
REMARK SMILES IDX 17 23 18 24 19 25 20 26 24 27 21 28 23 29 22 30
REMARK H PARENT
REMARK Flexibility Score: inf
ROOT
ATOM      1  C   UNL     1       1.939  -1.355  -0.952  1.00  0.00     0.082 A 
ATOM      2  C   UNL     1       1.956  -2.407  -1.857  1.00  0.00    -0.044 A 
ATOM      3  C   UNL     1       3.022  -2.491  -2.717  1.00  0.00    -0.043 A 
ATOM      4  C   UNL     1       4.229  -1.890  -2.396  1.00  0.00     0.029 A 
ATOM      5  N   UNL     1       4.269  -1.189  -1.262  1.00  0.00    -0.239 NA
ATOM      6  C   UNL     1       3.172  -0.890  -0.526  1.00  0.00     0.139 A 
ENDROOT
BRANCH   1   7
ATOM      7  C   UNL     1       0.694  -1.056  -0.240  1.00  0.00     0.259 C 
ATOM      8  N   UNL     1      -0.521  -1.029  -0.973  1.00  0.00    -0.322 N 
ATOM      9  O   UNL     1       0.631  -0.828   0.984  1.00  0.00    -0.269 OA
BRANCH   8  10
ATOM     10  C   UNL     1      -1.797  -1.278  -0.397  1.00  0.00     0.041 A 
ATOM     11  C   UNL     1      -4.460  -0.467   0.048  1.00  0.00    -0.028 A 
ATOM     12  C   UNL     1      -3.467  -0.306   0.997  1.00  0.00    -0.055 A 
ATOM     13  C   UNL     1      -4.131  -1.287  -1.024  1.00  0.00    -0.055 A 
ATOM     14  C   UNL     1      -2.193  -0.838   0.836  1.00  0.00    -0.038 A 
ATOM     15  C   UNL     1      -2.814  -1.657  -1.266  1.00  0.00    -0.038 A 
BRANCH  11  16
ATOM     16  C   UNL     1      -5.521   0.573  -0.127  1.00  0.00     0.082 C 
ATOM     17  C   UNL     1      -6.623   0.429   0.883  1.00  0.00    -0.030 C 
ATOM     18  C   UNL     1      -6.182   0.485  -1.474  1.00  0.00    -0.030 C 
ATOM     19  C   UNL     1      -7.926   0.680   0.177  1.00  0.00    -0.051 C 
ATOM     20  C   UNL     1      -7.625   0.877  -1.280  1.00  0.00    -0.051 C 
BRANCH  16  21
ATOM     21  C   UNL     1      -4.963   1.924   0.021  1.00  0.00     0.074 C 
ATOM     22  N   UNL     1      -4.348   2.904  -0.018  1.00  0.00    -0.197 NA
ENDBRANCH  16  21
ENDBRANCH  11  16
ENDBRANCH   8  10
ENDBRANCH   1   7
BRANCH   6  23
ATOM     23  N   UNL     1       3.272  -0.174   0.692  1.00  0.00    -0.365 N 
BRANCH  23  24
ATOM     24  C   UNL     1       4.439  -0.452   1.523  1.00  0.00     0.042 C 
BRANCH  24  25
ATOM     25  C   UNL     1       5.384   0.701   1.406  1.00  0.00    -0.026 A 
ATOM     26  C   UNL     1       6.237   0.819   0.332  1.00  0.00    -0.039 A 
ATOM     27  C   UNL     1       4.995   1.875   2.035  1.00  0.00    -0.039 A 
ATOM     28  C   UNL     1       6.542   2.064  -0.180  1.00  0.00     0.027 A 
ATOM     29  C   UNL     1       5.495   3.115   1.655  1.00  0.00     0.027 A 
ATOM     30  N   UNL     1       6.296   3.150   0.576  1.00  0.00    -0.265 NA
ENDBRANCH  24  25
ENDBRANCH  23  24
ENDBRANCH   6  23
TORSDOF 7

