
     RDKit          3D

 30 32  0  0  0  0  0  0  0  0999 V2000
   -4.5493   -2.4056    1.9276 F   0  0  0  0  0  0  0  0  0  0  0  0
   -4.9583   -1.2773    1.2555 C   0  0  0  0  0  0  0  0  0  0  0  0
   -5.4619   -0.3154    2.1159 F   0  0  0  0  0  0  0  0  0  0  0  0
   -5.9159   -1.6141    0.3174 F   0  0  0  0  0  0  0  0  0  0  0  0
   -3.8004   -0.6782    0.5239 C   0  0  0  0  0  0  0  0  0  0  0  0
   -2.6750   -1.4183    0.1993 C   0  0  0  0  0  0  0  0  0  0  0  0
   -1.6431   -0.8570   -0.5420 C   0  0  0  0  0  0  0  0  0  0  0  0
   -0.3398   -1.4133   -0.3468 N   0  0  0  0  0  0  0  0  0  0  0  0
    0.4189   -0.9103    0.7573 C   0  0  0  0  0  0  0  0  0  0  0  0
    0.0004   -1.3304    2.2673 S   0  0  0  0  0  0  0  0  0  0  0  0
    1.5678   -0.1255    0.4462 N   0  0  0  0  0  0  0  0  0  0  0  0
    2.5262   -0.7377   -0.4254 C   0  0  0  0  0  0  0  0  0  0  0  0
    2.1642   -1.2634   -1.6375 C   0  0  0  0  0  0  0  0  0  0  0  0
    3.1100   -1.4436   -2.6364 C   0  0  0  0  0  0  0  0  0  0  0  0
    4.4237   -1.0428   -2.4410 C   0  0  0  0  0  0  0  0  0  0  0  0
    5.4296   -0.4205   -3.9415 Br  0  0  0  0  0  0  0  0  0  0  0  0
    4.7917   -0.7921   -1.1370 C   0  0  0  0  0  0  0  0  0  0  0  0
    3.8684   -0.5290   -0.1325 C   0  0  0  0  0  0  0  0  0  0  0  0
    4.2504    0.1877    1.0910 C   0  0  0  0  0  0  0  0  0  0  0  0
    5.2770    1.0709    1.1269 N   0  0  0  0  0  0  0  0  0  0  0  0
    5.2145    1.5990    2.3463 N   0  0  0  0  0  0  0  0  0  0  0  0
    4.0628    1.3197    2.9205 N   0  0  0  0  0  0  0  0  0  0  0  0
    3.3866    0.6285    2.0130 N   0  0  0  0  0  0  0  0  0  0  0  0
   -1.6938    0.5184   -0.7116 C   0  0  0  0  0  0  0  0  0  0  0  0
   -2.9121    1.1424   -0.7401 C   0  0  0  0  0  0  0  0  0  0  0  0
   -3.0674    2.5969   -1.0345 C   0  0  0  0  0  0  0  0  0  0  0  0
   -2.0111    3.0916   -1.7570 F   0  0  0  0  0  0  0  0  0  0  0  0
   -4.2405    2.7084   -1.7737 F   0  0  0  0  0  0  0  0  0  0  0  0
   -3.2203    3.2457    0.1744 F   0  0  0  0  0  0  0  0  0  0  0  0
   -4.0034    0.4650   -0.2254 C   0  0  0  0  0  0  0  0  0  0  0  0
  1  2  1  0
  2  3  1  0
  2  4  1  0
  2  5  1  0
  5  6  2  0
  6  7  1  0
  7  8  1  0
  8  9  1  0
  9 10  2  0
  9 11  1  0
 11 12  1  0
 12 13  2  0
 13 14  1  0
 14 15  2  0
 15 16  1  0
 15 17  1  0
 17 18  2  0
 18 19  1  0
 19 20  2  0
 20 21  1  0
 21 22  2  0
 22 23  1  0
  7 24  2  0
 24 25  1  0
 25 26  1  0
 26 27  1  0
 26 28  1  0
 26 29  1  0
 25 30  2  0
 30  5  1  0
 18 12  1  0
 23 19  1  0
M  END
>  <zinc_id>  (1) 
ZINC000098052692

>  <smiles>  (1) 
FC(F)(F)c1cc(NC(=S)Nc2ccc(Br)cc2-c2nnn[nH]2)cc(C(F)(F)F)c1

$$$$
