REMARK SMILES Cc1cc(N2CCOCC2)cc2[nH]c(-c3c(NC[C@@H](O)c4cccc(Cl)c4)cc[nH]c3=O)nc12
REMARK SMILES IDX 17 1 16 2 15 3 31 4 28 5 30 6 32 7 29 8 14 9 1 10 2 11 3 12
REMARK SMILES IDX 34 13 4 14 12 15 33 16 11 17 13 18 5 19 6 20 10 21 7 22 9 23
REMARK SMILES IDX 8 24 18 25 19 26 20 27 21 28 22 29 27 30 23 31 25 32 24 33
REMARK SMILES IDX 26 34
REMARK H PARENT
REMARK Flexibility Score: inf
ROOT
ATOM      1  N   UNL     1      -2.328  -0.533   0.624  1.00  0.00    -0.381 N 
ENDROOT
BRANCH   1   2
ATOM      2  C   UNL     1      -2.031  -1.905   0.571  1.00  0.00     0.052 A 
ATOM      3  C   UNL     1      -0.727  -2.373   0.473  1.00  0.00     0.105 A 
ATOM      4  C   UNL     1      -0.520  -3.730   0.694  1.00  0.00     0.261 A 
ATOM      5  C   UNL     1      -2.932  -2.788   1.159  1.00  0.00    -0.022 A 
ATOM      6  N   UNL     1      -1.561  -4.580   0.523  1.00  0.00    -0.328 N 
ATOM      7  O   UNL     1       0.626  -4.214   0.612  1.00  0.00    -0.269 OA
ATOM      8  C   UNL     1      -2.792  -4.138   0.861  1.00  0.00     0.006 A 
BRANCH   3   9
ATOM      9  C   UNL     1       0.381  -1.458   0.158  1.00  0.00     0.146 A 
ATOM     10  C   UNL     1       4.209  -2.708  -1.533  1.00  0.00    -0.037 C 
ATOM     11  C   UNL     1       3.834  -1.554  -0.750  1.00  0.00    -0.021 A 
ATOM     12  C   UNL     1       4.857  -0.739  -0.300  1.00  0.00    -0.034 A 
ATOM     13  C   UNL     1       2.515  -1.252  -0.433  1.00  0.00     0.092 A 
ATOM     14  C   UNL     1       4.553   0.419   0.399  1.00  0.00     0.039 A 
ATOM     15  C   UNL     1       2.296  -0.443   0.643  1.00  0.00     0.068 A 
ATOM     16  N   UNL     1       1.373  -1.897  -0.659  1.00  0.00    -0.228 NA
ATOM     17  C   UNL     1       3.301   0.447   1.000  1.00  0.00    -0.013 A 
ATOM     18  N   UNL     1       1.022  -0.607   0.995  1.00  0.00    -0.338 N 
BRANCH  14  19
ATOM     19  N   UNL     1       5.288   1.629   0.180  1.00  0.00    -0.367 N 
ATOM     20  C   UNL     1       5.655   2.419   1.346  1.00  0.00     0.041 C 
ATOM     21  C   UNL     1       5.066   2.377  -1.050  1.00  0.00     0.041 C 
ATOM     22  C   UNL     1       4.833   3.697   1.220  1.00  0.00     0.064 C 
ATOM     23  C   UNL     1       5.684   3.743  -0.939  1.00  0.00     0.064 C 
ATOM     24  O   UNL     1       5.199   4.460   0.132  1.00  0.00    -0.378 OA
ENDBRANCH  14  19
ENDBRANCH   3   9
ENDBRANCH   1   2
BRANCH   1  25
ATOM     25  C   UNL     1      -2.065   0.474  -0.306  1.00  0.00     0.045 C 
BRANCH  25  26
ATOM     26  C   UNL     1      -3.258   0.490  -1.464  1.00  0.00     0.096 C 
ATOM     27  O   UNL     1      -3.616  -0.990  -1.278  1.00  0.00    -0.387 OA
BRANCH  26  28
ATOM     28  C   UNL     1      -4.408   0.979  -0.399  1.00  0.00    -0.016 A 
ATOM     29  C   UNL     1      -5.668   0.524  -0.789  1.00  0.00    -0.056 A 
ATOM     30  C   UNL     1      -4.367   2.366  -0.268  1.00  0.00    -0.038 A 
ATOM     31  C   UNL     1      -6.820   1.210  -0.423  1.00  0.00    -0.060 A 
ATOM     32  C   UNL     1      -5.485   3.172  -0.399  1.00  0.00     0.041 A 
ATOM     33  C   UNL     1      -6.733   2.591  -0.514  1.00  0.00    -0.044 A 
ATOM     34  Cl  UNL     1      -5.380   4.912  -0.656  1.00  0.00    -0.084 Cl
ENDBRANCH  26  28
ENDBRANCH  25  26
ENDBRANCH   1  25
TORSDOF 6

