REMARK SMILES N/C(=N/C(=O)c1nc(Cl)c(N)nc1N)NCc1ccccc1
REMARK SMILES IDX 1 1 2 2 3 3 15 4 4 5 5 6 6 7 7 8 13 9 8 10 12 11 14 12 9 13
REMARK SMILES IDX 10 14 11 15 16 16 17 17 18 18 22 19 19 20 21 21 20 22
REMARK H PARENT
REMARK Flexibility Score: inf
ROOT
ATOM      1  N   UNL     1       2.666  -2.393  -1.546  1.00  0.00    -0.370 N 
ATOM      2  C   UNL     1       1.613  -2.005  -0.655  1.00  0.00     0.197 C 
ATOM      3  N   UNL     1       0.504  -1.510  -1.124  1.00  0.00    -0.174 NA
ATOM      4  N   UNL     1       1.852  -1.821   0.747  1.00  0.00    -0.352 N 
ENDROOT
BRANCH   3   5
ATOM      5  C   UNL     1      -0.578  -1.442  -0.181  1.00  0.00     0.302 C 
ATOM      6  O   UNL     1      -0.953  -2.588   0.221  1.00  0.00    -0.265 OA
BRANCH   5   7
ATOM      7  C   UNL     1      -1.672  -0.549  -0.591  1.00  0.00     0.174 A 
ATOM      8  N   UNL     1      -1.454   0.742  -0.941  1.00  0.00    -0.223 NA
ATOM      9  C   UNL     1      -3.003  -0.913  -0.523  1.00  0.00     0.157 A 
ATOM     10  C   UNL     1      -2.350   1.683  -0.577  1.00  0.00     0.172 A 
ATOM     11  N   UNL     1      -3.973   0.028  -0.480  1.00  0.00    -0.209 NA
ATOM     12  N   UNL     1      -3.296  -2.312  -0.579  1.00  0.00    -0.382 N 
ATOM     13  Cl  UNL     1      -1.886   3.363  -0.326  1.00  0.00    -0.058 Cl
ATOM     14  C   UNL     1      -3.655   1.324  -0.269  1.00  0.00     0.163 A 
ATOM     15  N   UNL     1      -4.398   2.157   0.628  1.00  0.00    -0.381 N 
ENDBRANCH   5   7
ENDBRANCH   3   5
BRANCH   4  16
ATOM     16  C   UNL     1       1.161  -0.694   1.371  1.00  0.00     0.043 C 
BRANCH  16  17
ATOM     17  C   UNL     1       2.125   0.448   1.278  1.00  0.00    -0.029 A 
ATOM     18  C   UNL     1       3.367   0.329   1.892  1.00  0.00    -0.057 A 
ATOM     19  C   UNL     1       2.029   1.424   0.313  1.00  0.00    -0.057 A 
ATOM     20  C   UNL     1       4.420   1.145   1.494  1.00  0.00    -0.062 A 
ATOM     21  C   UNL     1       3.121   1.878  -0.374  1.00  0.00    -0.062 A 
ATOM     22  C   UNL     1       4.361   1.708   0.224  1.00  0.00    -0.062 A 
ENDBRANCH  16  17
ENDBRANCH   4  16
TORSDOF 4

