REMARK SMILES CC1(C)O[C@@H]2C[C@H]3[C@@H]4CCC5=CC(=O)C=C[C@]5(C)[C@H]4[C@@H](O)C[C@]3(C)[C@]2(C(=O)CO)O1
REMARK SMILES IDX 26 1 27 2 25 3 1 4 2 5 3 6 4 7 30 8 5 9 6 10 23 11 7 12
REMARK SMILES IDX 22 13 24 14 8 15 20 16 9 17 19 18 21 19 10 20 17 21 11 22
REMARK SMILES IDX 16 23 18 24 12 25 15 26 13 27 14 28 28 29 29 30
REMARK H PARENT
REMARK Flexibility Score: inf
ROOT
ATOM      1  C   UNL     1      -3.664   0.586  -0.701  1.00  0.00     0.193 C 
ATOM      2  O   UNL     1      -4.552   1.427  -0.556  1.00  0.00    -0.294 OA
ENDROOT
BRANCH   1   3
ATOM      3  C   UNL     1      -2.569   0.481   0.293  1.00  0.00     0.164 C 
ATOM      4  C   UNL     1      -4.242  -0.143   1.920  1.00  0.00    -0.011 C 
ATOM      5  C   UNL     1      -3.462   0.388   2.272  1.00  0.00     0.164 C 
ATOM      6  C   UNL     1      -3.816   0.974   3.579  1.00  0.00    -0.011 C 
ATOM      7  O   UNL     1      -2.397  -0.532   2.302  1.00  0.00    -0.344 OA
ATOM      8  O   UNL     1      -2.871   1.282   1.366  1.00  0.00    -0.333 OA
ATOM      9  C   UNL     1      -2.805  -1.020   0.917  1.00  0.00     0.098 C 
ATOM     10  C   UNL     1      -1.293  -1.593   0.611  1.00  0.00    -0.019 C 
ATOM     11  C   UNL     1      -1.246   0.491  -0.260  1.00  0.00     0.012 C 
ATOM     12  C   UNL     1      -0.470  -0.253   0.946  1.00  0.00    -0.027 C 
ATOM     13  C   UNL     1      -0.631   1.745  -0.402  1.00  0.00    -0.018 C 
ATOM     14  C   UNL     1      -1.283  -0.476  -1.410  1.00  0.00    -0.056 C 
ATOM     15  C   UNL     1       0.774  -0.634  -0.125  1.00  0.00    -0.031 C 
ATOM     16  C   UNL     1       0.893   1.757  -0.977  1.00  0.00     0.059 C 
ATOM     17  C   UNL     1       1.612  -1.493   0.940  1.00  0.00    -0.046 C 
ATOM     18  C   UNL     1       1.564   0.786   0.267  1.00  0.00     0.001 C 
ATOM     19  O   UNL     1       0.722   0.659  -2.005  1.00  0.00    -0.393 OA
ATOM     20  C   UNL     1       2.521  -2.082  -0.142  1.00  0.00    -0.030 C 
ATOM     21  C   UNL     1       2.937   0.493  -0.494  1.00  0.00     0.013 C 
ATOM     22  C   UNL     1       3.135  -0.895  -0.832  1.00  0.00    -0.056 C 
ATOM     23  C   UNL     1       4.013   0.833   0.499  1.00  0.00    -0.070 C 
ATOM     24  C   UNL     1       3.172   1.415  -1.624  1.00  0.00    -0.052 C 
ATOM     25  C   UNL     1       4.355  -1.106  -1.349  1.00  0.00    -0.015 C 
ATOM     26  C   UNL     1       5.228   0.301   0.419  1.00  0.00    -0.018 C 
ATOM     27  C   UNL     1       5.532  -0.367  -0.857  1.00  0.00     0.178 C 
ATOM     28  O   UNL     1       6.710  -0.834  -0.942  1.00  0.00    -0.290 OA
ENDBRANCH   1   3
BRANCH   1  29
ATOM     29  C   UNL     1      -3.792  -0.205  -1.944  1.00  0.00     0.105 C 
ATOM     30  O   UNL     1      -4.074  -1.551  -1.714  1.00  0.00    -0.388 OA
ENDBRANCH   1  29
TORSDOF 2

