
     RDKit          3D

 26 28  0  0  0  0  0  0  0  0999 V2000
    2.0580   -1.6755    0.6540 O   0  0  0  0  0  0  0  0  0  0  0  0
    1.9060   -0.5975    0.0248 C   0  0  0  0  0  0  0  0  0  0  0  0
    3.0344   -0.0142   -0.5895 N   0  0  0  0  0  0  0  0  0  0  0  0
    4.3792   -0.3419   -0.2579 C   0  0  0  0  0  0  0  0  0  0  0  0
    4.7918   -1.6298    0.0320 C   0  0  0  0  0  0  0  0  0  0  0  0
    6.1010   -1.9508   -0.2482 C   0  0  0  0  0  0  0  0  0  0  0  0
    7.0533   -0.9941   -0.5676 C   0  0  0  0  0  0  0  0  0  0  0  0
    6.6947    0.3421   -0.5227 C   0  0  0  0  0  0  0  0  0  0  0  0
    8.0165    1.7014   -0.2505 Br  0  0  0  0  0  0  0  0  0  0  0  0
    5.3524    0.6295   -0.4398 C   0  0  0  0  0  0  0  0  0  0  0  0
    0.6427    0.1410    0.0070 C   0  0  0  0  0  0  0  0  0  0  0  0
    0.6289    1.5208    0.1710 C   0  0  0  0  0  0  0  0  0  0  0  0
   -0.5829    2.1910    0.2826 C   0  0  0  0  0  0  0  0  0  0  0  0
   -1.7844    1.5227    0.0732 C   0  0  0  0  0  0  0  0  0  0  0  0
   -1.6812    0.2722   -0.5021 C   0  0  0  0  0  0  0  0  0  0  0  0
   -3.1111   -0.4701   -1.1801 S   0  0  0  0  0  0  0  0  0  0  0  0
   -3.4771    0.2818   -2.4360 O   0  0  0  0  0  0  0  0  0  0  0  0
   -2.9069   -1.9183   -1.4697 O   0  0  0  0  0  0  0  0  0  0  0  0
   -4.3765   -0.3234   -0.0336 N   0  0  0  0  0  0  0  0  0  0  0  0
   -4.0012   -0.8560    1.2452 C   0  0  0  0  0  0  0  0  0  0  0  0
   -4.4509   -0.0217    2.4090 C   0  0  0  0  0  0  0  0  0  0  0  0
   -5.9363    0.2150    2.4405 C   0  0  0  0  0  0  0  0  0  0  0  0
   -6.6083   -0.1637    1.1269 C   0  0  0  0  0  0  0  0  0  0  0  0
   -6.3411    0.9885    0.1646 C   0  0  0  0  0  0  0  0  0  0  0  0
   -4.8238    1.0476    0.0213 C   0  0  0  0  0  0  0  0  0  0  0  0
   -0.5773   -0.4913   -0.1544 C   0  0  0  0  0  0  0  0  0  0  0  0
  1  2  2  0
  2  3  1  0
  3  4  1  0
  4  5  2  0
  5  6  1  0
  6  7  2  0
  7  8  1  0
  8  9  1  0
  8 10  2  0
  2 11  1  0
 11 12  2  0
 12 13  1  0
 13 14  2  0
 14 15  1  0
 15 16  1  0
 16 17  2  0
 16 18  2  0
 16 19  1  0
 19 20  1  0
 20 21  1  0
 21 22  1  0
 22 23  1  0
 23 24  1  0
 24 25  1  0
 15 26  2  0
 10  4  1  0
 26 11  1  0
 25 19  1  0
M  END
>  <zinc_id>  (1) 
ZINC000001159030

>  <smiles>  (1) 
O=C(Nc1cccc(Br)c1)c1cccc(S(=O)(=O)N2CCCCCC2)c1

$$$$
