
     RDKit          3D

 37 41  0  0  0  0  0  0  0  0999 V2000
    0.1479    1.4250    2.3111 C   0  0  0  0  0  0  0  0  0  0  0  0
   -0.5616    0.8106    1.2248 N   0  0  0  0  0  0  0  0  0  0  0  0
   -1.9719    0.5394    1.2591 C   0  0  0  0  0  0  0  0  0  0  0  0
   -2.7436    0.8111    2.2286 O   0  0  0  0  0  0  0  0  0  0  0  0
   -2.3637   -0.1031    0.0372 N   0  0  0  0  0  0  0  0  0  0  0  0
   -3.4682   -1.0054   -0.1065 C   0  0  0  0  0  0  0  0  0  0  0  0
   -3.4435   -2.2908    0.4229 C   0  0  0  0  0  0  0  0  0  0  0  0
   -4.5616   -2.9724    0.8130 C   0  0  0  0  0  0  0  0  0  0  0  0
   -4.5551   -4.2598    1.9924 Cl  0  0  0  0  0  0  0  0  0  0  0  0
   -5.7801   -2.5419    0.3148 C   0  0  0  0  0  0  0  0  0  0  0  0
   -5.8067   -1.4376   -0.5271 C   0  0  0  0  0  0  0  0  0  0  0  0
   -7.3345   -1.0588   -1.2684 Cl  0  0  0  0  0  0  0  0  0  0  0  0
   -4.7188   -0.5796   -0.5361 C   0  0  0  0  0  0  0  0  0  0  0  0
   -1.2229    0.0487   -0.8207 C   0  0  0  0  0  0  0  0  0  0  0  0
   -1.3485   -0.1012   -2.0736 O   0  0  0  0  0  0  0  0  0  0  0  0
   -0.0897    0.2049    0.0519 C   0  0  2  0  0  0  0  0  0  0  0  0
    0.8500   -0.9317    0.1578 C   0  0  0  0  0  0  0  0  0  0  0  0
    1.6337   -0.9683   -1.0540 N   0  0  0  0  0  0  0  0  0  0  0  0
    3.0244   -0.7252   -0.7813 C   0  0  0  0  0  0  0  0  0  0  0  0
    3.5475   -1.7296    0.1884 C   0  0  0  0  0  0  0  0  0  0  0  0
    4.8785   -2.0068    0.4778 C   0  0  0  0  0  0  0  0  0  0  0  0
    5.0140   -2.5230    1.7429 C   0  0  0  0  0  0  0  0  0  0  0  0
    6.2622   -2.4801    2.5198 C   0  0  0  0  0  0  0  0  0  0  0  0
    6.8280   -3.5216    2.9341 O   0  0  0  0  0  0  0  0  0  0  0  0
    7.0212   -1.3085    2.5772 O   0  0  0  0  0  0  0  0  0  0  0  0
    4.1103   -3.5599    1.9551 C   0  0  0  0  0  0  0  0  0  0  0  0
    2.7930   -3.0528    0.9774 S   0  0  0  0  0  0  0  0  0  0  0  0
    1.1793    0.1273   -1.8999 C   0  0  0  0  0  0  0  0  0  0  0  0
    1.0199    1.2066   -0.6464 C   0  0  1  0  0  0  0  0  0  0  0  0
   -0.0947    2.0950   -1.4526 C   0  0  0  0  0  0  0  0  0  0  0  0
    0.3811    2.5593   -2.6732 C   0  0  0  0  0  0  0  0  0  0  0  0
    0.4287    3.9108   -2.9931 C   0  0  0  0  0  0  0  0  0  0  0  0
    0.0694    4.8671   -2.0495 C   0  0  0  0  0  0  0  0  0  0  0  0
    0.8764    6.0565   -1.8781 C   0  0  0  0  0  0  0  0  0  0  0  0
    1.4540    7.0631   -1.7457 N   0  0  0  0  0  0  0  0  0  0  0  0
   -0.7548    4.3826   -1.0400 C   0  0  0  0  0  0  0  0  0  0  0  0
   -0.6994    3.0500   -0.6402 C   0  0  0  0  0  0  0  0  0  0  0  0
  1  2  1  0
  2  3  1  0
  3  4  2  0
  3  5  1  0
  5  6  1  0
  6  7  2  0
  7  8  1  0
  8  9  1  0
  8 10  2  0
 10 11  1  0
 11 12  1  0
 11 13  2  0
  5 14  1  0
 14 15  2  0
 16 14  1  6
 16 17  1  0
 17 18  1  0
 18 19  1  0
 19 20  1  0
 20 21  2  0
 21 22  1  0
 22 23  1  0
 23 24  2  0
 23 25  1  0
 22 26  2  0
 26 27  1  0
 18 28  1  0
 28 29  1  0
 29 30  1  6
 30 31  2  0
 31 32  1  0
 32 33  2  0
 33 34  1  0
 34 35  3  0
 33 36  1  0
 36 37  2  0
 16  2  1  0
 27 20  1  0
 37 30  1  0
 13  6  1  0
 29 16  1  0
M  END
>  <zinc_id>  (1) 
ZINC000016052171

>  <smiles>  (1) 
CN1C(=O)N(c2cc(Cl)cc(Cl)c2)C(=O)[C@]12CN(Cc1cc(C(=O)O)cs1)C[C@H]2c1ccc(C#N)cc1

$$$$
