REMARK SMILES O=C(Nc1cnn2ccc(N3CCC[C@@H]3c3cc(F)ccc3F)nc12)N1CC[C@H](O)C1
REMARK SMILES IDX 4 1 5 2 6 3 7 4 8 5 9 6 10 7 24 8 25 9 3 10 1 11 2 12 26 13
REMARK SMILES IDX 27 14 31 15 28 16 29 17 30 18 11 19 12 20 15 21 13 22 14 23
REMARK SMILES IDX 16 24 17 25 22 26 18 27 21 28 23 29 19 30 20 31
REMARK H PARENT
REMARK Flexibility Score: inf
ROOT
ATOM      1  C   UNL     1       2.621  -1.107  -0.856  1.00  0.00     0.108 A 
ATOM      2  C   UNL     1       3.056  -2.325  -1.331  1.00  0.00     0.075 A 
ATOM      3  N   UNL     1       1.953  -3.058  -1.507  1.00  0.00    -0.173 NA
ATOM      4  N   UNL     1       0.908  -2.364  -1.123  1.00  0.00    -0.220 N 
ATOM      5  C   UNL     1      -0.348  -2.795  -0.872  1.00  0.00     0.035 A 
ATOM      6  C   UNL     1      -1.276  -1.821  -0.635  1.00  0.00    -0.001 A 
ATOM      7  C   UNL     1      -0.954  -0.554  -0.163  1.00  0.00     0.133 A 
ATOM      8  N   UNL     1       0.354  -0.318  -0.065  1.00  0.00    -0.209 NA
ATOM      9  C   UNL     1       1.268  -1.202  -0.546  1.00  0.00     0.181 A 
ENDROOT
BRANCH   1  10
ATOM     10  N   UNL     1       3.500  -0.065  -0.430  1.00  0.00    -0.303 N 
ATOM     11  O   UNL     1       3.291  -0.576   1.790  1.00  0.00    -0.248 OA
ATOM     12  C   UNL     1       4.029  -0.142   0.898  1.00  0.00     0.322 C 
BRANCH  12  13
ATOM     13  N   UNL     1       5.381   0.250   1.162  1.00  0.00    -0.322 N 
ATOM     14  C   UNL     1       6.533  -0.604   0.865  1.00  0.00     0.025 C 
ATOM     15  C   UNL     1       5.881   1.546   0.986  1.00  0.00     0.048 C 
ATOM     16  C   UNL     1       6.527  -0.208  -0.585  1.00  0.00    -0.007 C 
ATOM     17  C   UNL     1       6.813   1.426  -0.390  1.00  0.00     0.073 C 
ATOM     18  O   UNL     1       8.077   1.147   0.442  1.00  0.00    -0.391 OA
ENDBRANCH  12  13
ENDBRANCH   1  10
BRANCH   7  19
ATOM     19  N   UNL     1      -2.008   0.339   0.212  1.00  0.00    -0.349 N 
ATOM     20  C   UNL     1      -1.921   1.637   0.820  1.00  0.00     0.020 C 
ATOM     21  C   UNL     1      -3.196   0.490  -0.842  1.00  0.00     0.059 C 
ATOM     22  C   UNL     1      -1.591   2.330  -0.504  1.00  0.00    -0.033 C 
ATOM     23  C   UNL     1      -2.888   2.095  -1.146  1.00  0.00    -0.027 C 
BRANCH  21  24
ATOM     24  C   UNL     1      -4.310   0.807   0.319  1.00  0.00     0.013 A 
ATOM     25  C   UNL     1      -5.162   1.862   0.017  1.00  0.00    -0.018 A 
ATOM     26  C   UNL     1      -5.005  -0.385   0.510  1.00  0.00     0.128 A 
ATOM     27  C   UNL     1      -6.514   1.862   0.318  1.00  0.00     0.123 A 
ATOM     28  C   UNL     1      -6.385  -0.486   0.481  1.00  0.00    -0.023 A 
ATOM     29  F   UNL     1      -4.329  -1.422   1.002  1.00  0.00    -0.207 F 
ATOM     30  F   UNL     1      -7.164   3.000   0.644  1.00  0.00    -0.207 F 
ATOM     31  C   UNL     1      -7.140   0.640   0.263  1.00  0.00    -0.023 A 
ENDBRANCH  21  24
ENDBRANCH   7  19
TORSDOF 4

