
     RDKit          3D

 24 28  0  0  0  0  0  0  0  0999 V2000
    1.3017   -4.1663    0.2224 N   0  0  0  0  0  0  0  0  0  0  0  0
    1.0684   -2.8318   -0.0219 C   0  0  0  0  0  0  0  0  0  0  0  0
   -0.1756   -2.3129   -0.1742 N   0  0  0  0  0  0  0  0  0  0  0  0
   -0.2948   -0.9780   -0.0202 C   0  0  0  0  0  0  0  0  0  0  0  0
    0.8106   -0.2217    0.3541 C   0  0  0  0  0  0  0  0  0  0  0  0
    2.0328   -0.6891   -0.0883 C   0  0  0  0  0  0  0  0  0  0  0  0
    3.1445    0.1827   -0.1735 N   0  0  0  0  0  0  0  0  0  0  0  0
    3.0446    1.4148   -0.9385 C   0  0  0  0  0  0  0  0  0  0  0  0
    3.4761    2.6105   -0.1032 C   0  0  0  0  0  0  0  0  0  0  0  0
    4.7182    2.3260    0.6034 N   0  0  0  0  0  0  0  0  0  0  0  0
    5.3249    1.0912    0.1568 C   0  0  0  0  0  0  0  0  0  0  0  0
    4.3879   -0.0310    0.5472 C   0  0  0  0  0  0  0  0  0  0  0  0
    2.1641   -2.0383   -0.1145 N   0  0  0  0  0  0  0  0  0  0  0  0
    0.5490    1.2333    0.5601 C   0  0  0  0  0  0  0  0  0  0  0  0
   -0.6089    1.2997    1.5472 C   0  0  0  0  0  0  0  0  0  0  0  0
   -1.7877    0.7357    0.8079 C   0  0  0  0  0  0  0  0  0  0  0  0
   -1.6118   -0.4396    0.2596 C   0  0  0  0  0  0  0  0  0  0  0  0
   -2.9914   -0.8222   -0.4381 C   0  0  2  0  0  0  0  0  0  0  0  0
   -3.0053    0.5536   -1.2927 C   0  0  0  0  0  0  0  0  0  0  0  0
   -4.3689    0.8270   -1.8016 C   0  0  0  0  0  0  0  0  0  0  0  0
   -5.0852    1.3279   -0.5448 C   0  0  0  0  0  0  0  0  0  0  0  0
   -5.1809    0.1022    0.2452 C   0  0  0  0  0  0  0  0  0  0  0  0
   -3.7799   -0.2768    0.9812 C   0  0  2  0  0  0  0  0  0  0  0  0
   -3.1325    1.1033    0.8850 O   0  0  0  0  0  0  0  0  0  0  0  0
  1  2  1  0
  2  3  2  0
  3  4  1  0
  4  5  2  0
  5  6  1  0
  6  7  1  0
  7  8  1  0
  8  9  1  0
  9 10  1  0
 10 11  1  0
 11 12  1  0
  6 13  2  0
  5 14  1  0
 14 15  1  0
 15 16  1  0
 16 17  2  0
 18 17  1  1
 18 19  1  0
 19 20  1  0
 20 21  1  0
 21 22  1  0
 23 22  1  6
 23 24  1  0
 13  2  1  0
 24 16  1  0
 17  4  1  0
 23 18  1  0
 12  7  1  0
M  END
>  <zinc_id>  (1) 
ZINC000042887577

>  <smiles>  (1) 
Nc1nc2c(c(N3CCNCC3)n1)CCC1=C2[C@@H]2CCCC[C@@H]2O1

$$$$
