REMARK SMILES CN1CCN(c2nc(C3=C(c4c[nH]c5ccccc45)C(=O)NC3=O)c3ccccc3n2)CC1
REMARK SMILES IDX 6 1 31 2 30 3 29 4 28 5 27 6 26 7 25 8 8 9 7 10 5 11 1 12
REMARK SMILES IDX 2 13 3 14 33 15 4 16 32 17 9 18 10 19 23 20 20 21 22 22
REMARK SMILES IDX 24 23 21 24 11 25 12 26 19 27 13 28 14 29 18 30 15 31 17 32
REMARK SMILES IDX 16 33
REMARK H PARENT
REMARK Flexibility Score: inf
ROOT
ATOM      1  C   UNL     1       2.328  -0.089  -0.481  1.00  0.00     0.226 A 
ATOM      2  N   UNL     1       2.612   0.898  -1.366  1.00  0.00    -0.213 NA
ATOM      3  C   UNL     1       2.009   2.101  -1.336  1.00  0.00     0.076 A 
ATOM      4  C   UNL     1       2.672   3.288  -1.594  1.00  0.00    -0.036 A 
ATOM      5  C   UNL     1       2.060   4.524  -1.433  1.00  0.00    -0.060 A 
ATOM      6  C   UNL     1       0.905   4.607  -0.666  1.00  0.00    -0.061 A 
ATOM      7  C   UNL     1       0.267   3.407  -0.380  1.00  0.00    -0.051 A 
ATOM      8  C   UNL     1       0.859   2.179  -0.564  1.00  0.00     0.027 A 
ATOM      9  C   UNL     1       0.350   1.003  -0.024  1.00  0.00     0.090 A 
ATOM     10  N   UNL     1       1.284   0.101   0.365  1.00  0.00    -0.212 NA
ENDROOT
BRANCH   1  11
ATOM     11  N   UNL     1       3.324  -1.081  -0.203  1.00  0.00    -0.338 N 
ATOM     12  C   UNL     1       4.885  -3.669   1.611  1.00  0.00    -0.013 C 
ATOM     13  N   UNL     1       5.349  -2.909   0.453  1.00  0.00    -0.303 NA
ATOM     14  C   UNL     1       4.441  -3.140  -0.637  1.00  0.00     0.016 C 
ATOM     15  C   UNL     1       5.391  -1.522   0.880  1.00  0.00     0.016 C 
ATOM     16  C   UNL     1       3.076  -2.504  -0.409  1.00  0.00     0.033 C 
ATOM     17  C   UNL     1       4.734  -0.698  -0.200  1.00  0.00     0.033 C 
ENDBRANCH   1  11
BRANCH   9  18
ATOM     18  C   UNL     1      -0.934   1.146   0.671  1.00  0.00     0.080 C 
ATOM     19  C   UNL     1      -2.124   0.655   0.311  1.00  0.00     0.064 C 
ATOM     20  C   UNL     1      -1.087   2.026   1.833  1.00  0.00     0.261 C 
ATOM     21  C   UNL     1      -3.122   1.442   1.045  1.00  0.00     0.259 C 
ATOM     22  N   UNL     1      -2.480   2.074   2.158  1.00  0.00    -0.288 N 
ATOM     23  O   UNL     1      -0.186   2.447   2.610  1.00  0.00    -0.269 OA
ATOM     24  O   UNL     1      -4.280   1.602   0.616  1.00  0.00    -0.269 OA
BRANCH  19  25
ATOM     25  C   UNL     1      -2.277  -0.611  -0.361  1.00  0.00     0.013 A 
ATOM     26  C   UNL     1      -1.298  -1.579  -0.566  1.00  0.00     0.010 A 
ATOM     27  C   UNL     1      -3.467  -1.302  -0.534  1.00  0.00     0.007 A 
ATOM     28  N   UNL     1      -1.865  -2.808  -0.562  1.00  0.00    -0.361 N 
ATOM     29  C   UNL     1      -3.205  -2.656  -0.599  1.00  0.00     0.046 A 
ATOM     30  C   UNL     1      -4.617  -0.833  -1.153  1.00  0.00    -0.052 A 
ATOM     31  C   UNL     1      -4.282  -3.490  -0.844  1.00  0.00    -0.038 A 
ATOM     32  C   UNL     1      -5.747  -1.624  -0.980  1.00  0.00    -0.061 A 
ATOM     33  C   UNL     1      -5.575  -2.987  -0.768  1.00  0.00    -0.060 A 
ENDBRANCH  19  25
ENDBRANCH   9  18
TORSDOF 3

