REMARK SMILES Cc1nc2c([nH]1)-c1ccccc1N(C(=O)c1ccc(NC(=O)c3ccccc3-c3ccccc3)cc1)CC2
REMARK SMILES IDX 14 1 15 2 13 3 12 4 7 5 8 6 9 7 11 8 10 9 5 10 1 11 2 12
REMARK SMILES IDX 3 13 6 14 4 15 38 16 37 18 16 20 17 21 36 22 18 23 35 24
REMARK SMILES IDX 19 25 20 26 21 27 22 28 23 29 24 30 28 31 25 32 27 33 26 34
REMARK SMILES IDX 29 35 30 36 34 37 31 38 33 39 32 40
REMARK H PARENT
REMARK Flexibility Score: 90.00
ROOT
ATOM      1  C   UNL     1       1.786  -0.771   1.742  1.00  0.00     0.258 C 
ATOM      2  O   UNL     1       1.282  -1.788   2.294  1.00  0.00    -0.269 OA
ENDROOT
BRANCH   1   3
ATOM      3  N   UNL     1       3.094  -0.867   1.168  1.00  0.00    -0.307 N 
BRANCH   3   4
ATOM      4  C   UNL     1       3.713   0.396   0.978  1.00  0.00     0.053 A 
ATOM      5  C   UNL     1       4.886   0.615   0.274  1.00  0.00     0.024 A 
ATOM      6  C   UNL     1       5.317   1.893   0.001  1.00  0.00    -0.051 A 
ATOM      7  C   UNL     1       4.645   2.933   0.608  1.00  0.00    -0.061 A 
ATOM      8  C   UNL     1       3.223   1.397   1.805  1.00  0.00    -0.038 A 
ATOM      9  C   UNL     1       3.752   2.671   1.639  1.00  0.00    -0.060 A 
BRANCH   5  10
ATOM     10  C   UNL     1       5.756  -0.350  -0.405  1.00  0.00     0.071 A 
ATOM     11  C   UNL     1       9.062  -1.317  -1.331  1.00  0.00    -0.006 C 
ATOM     12  C   UNL     1       7.603  -1.228  -1.052  1.00  0.00     0.103 A 
ATOM     13  N   UNL     1       6.807  -2.269  -0.718  1.00  0.00    -0.238 NA
ATOM     14  N   UNL     1       6.883  -0.088  -1.073  1.00  0.00    -0.342 N 
ATOM     15  C   UNL     1       5.633  -1.731  -0.344  1.00  0.00     0.068 A 
BRANCH  15  16
ATOM     16  C   UNL     1       4.371  -2.479  -0.140  1.00  0.00     0.010 CG0
ATOM     17  G   UNL     1       3.726  -2.182   1.192  1.00  0.00     0.000 G0
ENDBRANCH  15  16
ENDBRANCH   5  10
ENDBRANCH   3   4
BRANCH   3  18
ATOM     18  C   UNL     1       3.726  -2.182   1.192  1.00  0.00     0.032 CG0
ATOM     19  G   UNL     1       4.371  -2.479  -0.140  1.00  0.00     0.000 G0
ENDBRANCH   3  18
ENDBRANCH   1   3
BRANCH   1  20
ATOM     20  C   UNL     1       0.891   0.232   1.157  1.00  0.00     0.040 A 
ATOM     21  C   UNL     1      -0.064   0.872   1.919  1.00  0.00    -0.047 A 
ATOM     22  C   UNL     1       0.778   0.380  -0.218  1.00  0.00    -0.047 A 
ATOM     23  C   UNL     1      -1.200   1.396   1.312  1.00  0.00    -0.038 A 
ATOM     24  C   UNL     1      -0.454   0.650  -0.795  1.00  0.00    -0.038 A 
ATOM     25  C   UNL     1      -1.456   1.246  -0.039  1.00  0.00     0.041 A 
BRANCH  25  26
ATOM     26  N   UNL     1      -2.814   0.961  -0.401  1.00  0.00    -0.322 N 
ATOM     27  C   UNL     1      -3.223  -0.288  -0.916  1.00  0.00     0.256 C 
ATOM     28  O   UNL     1      -2.375  -0.907  -1.629  1.00  0.00    -0.269 OA
BRANCH  27  29
ATOM     29  C   UNL     1      -4.321  -1.082  -0.356  1.00  0.00     0.048 A 
ATOM     30  C   UNL     1      -4.174  -2.443  -0.114  1.00  0.00    -0.049 A 
ATOM     31  C   UNL     1      -5.590  -0.517  -0.410  1.00  0.00    -0.006 A 
ATOM     32  C   UNL     1      -5.318  -3.231  -0.071  1.00  0.00    -0.061 A 
ATOM     33  C   UNL     1      -6.700  -1.349  -0.506  1.00  0.00    -0.054 A 
ATOM     34  C   UNL     1      -6.552  -2.724  -0.459  1.00  0.00    -0.062 A 
BRANCH  31  35
ATOM     35  C   UNL     1      -5.699   0.872   0.053  1.00  0.00    -0.018 A 
ATOM     36  C   UNL     1      -6.226   1.034   1.329  1.00  0.00    -0.054 A 
ATOM     37  C   UNL     1      -6.056   1.850  -0.864  1.00  0.00    -0.054 A 
ATOM     38  C   UNL     1      -6.970   2.131   1.698  1.00  0.00    -0.062 A 
ATOM     39  C   UNL     1      -6.720   3.007  -0.491  1.00  0.00    -0.062 A 
ATOM     40  C   UNL     1      -7.294   3.076   0.762  1.00  0.00    -0.062 A 
ENDBRANCH  31  35
ENDBRANCH  27  29
ENDBRANCH  25  26
ENDBRANCH   1  20
TORSDOF 5

