REMARK SMILES c1ccc(C(O[C@@H]2CCCN(CCc3ccc4c(c3)OCO4)C2)c2ccccc2)cc1
REMARK SMILES IDX 7 1 8 2 9 3 10 4 11 5 23 6 6 7 5 8 4 9 1 10 2 11 31 12 3 13
REMARK SMILES IDX 30 14 24 15 25 16 29 17 26 18 28 19 27 20 12 21 13 22 14 23
REMARK SMILES IDX 15 24 19 25 16 26 18 27 17 28 20 29 22 30 21 31
REMARK H PARENT
REMARK Flexibility Score: inf
ROOT
ATOM      1  C   UNL     1      -1.170  -0.401   0.702  1.00  0.00     0.072 C 
ATOM      2  C   UNL     1      -0.933   0.434  -0.704  1.00  0.00    -0.024 C 
ATOM      3  C   UNL     1       0.245   1.336  -0.367  1.00  0.00    -0.038 C 
ATOM      4  C   UNL     1       1.012   0.714   0.786  1.00  0.00    -0.002 C 
ATOM      5  N   UNL     1       1.266  -0.657   0.485  1.00  0.00    -0.300 NA
ATOM      6  C   UNL     1       0.068  -1.446   0.370  1.00  0.00     0.025 C 
ENDROOT
BRANCH   1   7
ATOM      7  O   UNL     1      -2.183  -1.326   0.056  1.00  0.00    -0.364 OA
BRANCH   7   8
ATOM      8  C   UNL     1      -3.416  -1.014   0.457  1.00  0.00     0.108 C 
BRANCH   8   9
ATOM      9  C   UNL     1      -3.646  -0.066   1.523  1.00  0.00    -0.015 A 
ATOM     10  C   UNL     1      -4.403   1.522   3.551  1.00  0.00    -0.062 A 
ATOM     11  C   UNL     1      -5.287   1.311   2.604  1.00  0.00    -0.062 A 
ATOM     12  C   UNL     1      -3.199   0.994   3.569  1.00  0.00    -0.062 A 
ATOM     13  C   UNL     1      -4.967   0.363   1.651  1.00  0.00    -0.056 A 
ATOM     14  C   UNL     1      -2.990  -0.109   2.748  1.00  0.00    -0.056 A 
ENDBRANCH   8   9
BRANCH   8  15
ATOM     15  C   UNL     1      -4.374  -0.867  -0.644  1.00  0.00    -0.015 A 
ATOM     16  C   UNL     1      -4.904  -1.987  -1.271  1.00  0.00    -0.056 A 
ATOM     17  C   UNL     1      -4.370   0.334  -1.341  1.00  0.00    -0.056 A 
ATOM     18  C   UNL     1      -5.733  -1.792  -2.366  1.00  0.00    -0.062 A 
ATOM     19  C   UNL     1      -4.983   0.461  -2.557  1.00  0.00    -0.062 A 
ATOM     20  C   UNL     1      -5.491  -0.671  -3.135  1.00  0.00    -0.062 A 
ENDBRANCH   8  15
ENDBRANCH   7   8
ENDBRANCH   1   7
BRANCH   5  21
ATOM     21  C   UNL     1       2.179  -1.345   1.312  1.00  0.00     0.002 C 
BRANCH  21  22
ATOM     22  C   UNL     1       3.478  -0.739   1.603  1.00  0.00    -0.015 C 
BRANCH  22  23
ATOM     23  C   UNL     1       4.318  -0.359   0.469  1.00  0.00    -0.043 A 
ATOM     24  C   UNL     1       4.184   0.903  -0.085  1.00  0.00    -0.055 A 
ATOM     25  C   UNL     1       5.291  -1.169  -0.102  1.00  0.00    -0.013 A 
ATOM     26  C   UNL     1       5.213   1.496  -0.779  1.00  0.00    -0.016 A 
ATOM     27  C   UNL     1       6.181  -0.665  -1.043  1.00  0.00     0.166 A 
ATOM     28  C   UNL     1       6.287   0.714  -1.167  1.00  0.00     0.165 A 
ATOM     29  O   UNL     1       7.018  -1.245  -2.000  1.00  0.00    -0.454 OA
ATOM     30  O   UNL     1       7.529   0.909  -1.730  1.00  0.00    -0.454 OA
ATOM     31  C   UNL     1       7.779  -0.196  -2.595  1.00  0.00     0.231 C 
ENDBRANCH  22  23
ENDBRANCH  21  22
ENDBRANCH   5  21
TORSDOF 7

