REMARK SMILES O=C1C(SCCO)=C(SCCO)C(=O)c2ccccc21
REMARK SMILES IDX 1 1 2 2 20 3 19 4 18 5 17 6 16 7 15 8 13 9 14 10 8 11 3 12
REMARK SMILES IDX 4 13 5 14 6 15 7 16 9 17 10 18 11 19 12 20
REMARK H PARENT
REMARK Flexibility Score: inf
ROOT
ATOM      1  O   UNL     1       2.343   0.093   0.858  1.00  0.00    -0.288 OA
ATOM      2  C   UNL     1       1.131   0.222   0.553  1.00  0.00     0.201 C 
ATOM      3  C   UNL     1       0.579   1.573   0.408  1.00  0.00     0.034 A 
ATOM      4  C   UNL     1       1.262   2.664   0.928  1.00  0.00    -0.050 A 
ATOM      5  C   UNL     1       1.014   3.915   0.383  1.00  0.00    -0.061 A 
ATOM      6  C   UNL     1       0.272   4.035  -0.780  1.00  0.00    -0.061 A 
ATOM      7  C   UNL     1      -0.742   3.100  -0.937  1.00  0.00    -0.050 A 
ATOM      8  C   UNL     1      -0.503   1.835  -0.417  1.00  0.00     0.034 A 
ATOM      9  C   UNL     1      -1.216   0.666  -0.942  1.00  0.00     0.201 C 
ATOM     10  O   UNL     1      -2.138   0.897  -1.757  1.00  0.00    -0.288 OA
ATOM     11  C   UNL     1      -0.769  -0.670  -0.565  1.00  0.00     0.073 C 
ATOM     12  C   UNL     1       0.428  -0.900  -0.062  1.00  0.00     0.073 C 
ENDROOT
BRANCH  12  13
ATOM     13  S   UNL     1       1.140  -2.514  -0.245  1.00  0.00    -0.118 SA
BRANCH  13  14
ATOM     14  C   UNL     1       2.869  -2.575   0.247  1.00  0.00     0.021 C 
BRANCH  14  15
ATOM     15  C   UNL     1       3.821  -2.429  -0.914  1.00  0.00     0.052 C 
ATOM     16  O   UNL     1       5.110  -2.495  -0.408  1.00  0.00    -0.396 OA
ENDBRANCH  14  15
ENDBRANCH  13  14
ENDBRANCH  12  13
BRANCH  11  17
ATOM     17  S   UNL     1      -1.780  -2.059  -1.008  1.00  0.00    -0.118 SA
BRANCH  17  18
ATOM     18  C   UNL     1      -3.139  -2.333   0.160  1.00  0.00     0.021 C 
BRANCH  18  19
ATOM     19  C   UNL     1      -4.207  -1.277   0.010  1.00  0.00     0.052 C 
ATOM     20  O   UNL     1      -5.475  -1.746   0.312  1.00  0.00    -0.396 OA
ENDBRANCH  18  19
ENDBRANCH  17  18
ENDBRANCH  11  17
TORSDOF 6

