REMARK SMILES Cc1cnc(Nc2ccc(OCCN3CCCC3)cc2)nc1Nc1cccc(S(=O)(=O)NC(C)(C)C)c1
REMARK SMILES IDX 1 1 2 2 3 3 4 4 5 5 21 6 22 7 23 8 24 9 25 10 37 11 26 12
REMARK SMILES IDX 28 13 27 14 29 15 30 16 31 17 32 18 33 19 34 20 35 21 36 22
REMARK SMILES IDX 6 23 7 24 8 25 20 26 9 27 19 28 10 29 11 30 12 31 13 32
REMARK SMILES IDX 14 33 15 34 18 35 16 36 17 37
REMARK H PARENT
REMARK Flexibility Score: inf
ROOT
ATOM      1  C   UNL     1      -2.245   1.985   0.501  1.00  0.00    -0.035 C 
ATOM      2  C   UNL     1      -1.014   1.183   0.640  1.00  0.00     0.010 A 
ATOM      3  C   UNL     1      -0.221   1.438   1.752  1.00  0.00     0.037 A 
ATOM      4  N   UNL     1       0.760   0.559   2.068  1.00  0.00    -0.221 NA
ATOM      5  C   UNL     1       1.025  -0.494   1.260  1.00  0.00     0.229 A 
ATOM      6  N   UNL     1       0.071  -0.847   0.388  1.00  0.00    -0.195 NA
ATOM      7  C   UNL     1      -0.823   0.035  -0.118  1.00  0.00     0.138 A 
ENDROOT
BRANCH   7   8
ATOM      8  N   UNL     1      -1.705  -0.315  -1.173  1.00  0.00    -0.340 N 
BRANCH   8   9
ATOM      9  C   UNL     1      -2.939  -0.944  -0.815  1.00  0.00     0.041 A 
ATOM     10  C   UNL     1      -2.823  -2.087  -0.033  1.00  0.00    -0.038 A 
ATOM     11  C   UNL     1      -4.159  -0.315  -0.907  1.00  0.00    -0.018 A 
ATOM     12  C   UNL     1      -3.983  -2.577   0.552  1.00  0.00    -0.059 A 
ATOM     13  C   UNL     1      -5.207  -0.589  -0.041  1.00  0.00     0.084 A 
ATOM     14  C   UNL     1      -5.034  -1.701   0.774  1.00  0.00    -0.042 A 
BRANCH  13  15
ATOM     15  S   UNL     1      -6.353   0.650   0.455  1.00  0.00     0.241 S 
ATOM     16  O   UNL     1      -5.692   1.388   1.598  1.00  0.00    -0.207 OA
ATOM     17  O   UNL     1      -6.501   1.634  -0.662  1.00  0.00    -0.207 OA
BRANCH  15  18
ATOM     18  N   UNL     1      -7.845  -0.048   0.934  1.00  0.00    -0.206 NA
BRANCH  18  19
ATOM     19  C   UNL     1      -8.912   0.187  -0.006  1.00  0.00     0.025 C 
ATOM     20  C   UNL     1      -8.454   0.163  -1.441  1.00  0.00    -0.046 C 
ATOM     21  C   UNL     1      -9.585   1.510   0.316  1.00  0.00    -0.046 C 
ATOM     22  C   UNL     1      -9.939  -0.919   0.185  1.00  0.00    -0.046 C 
ENDBRANCH  18  19
ENDBRANCH  15  18
ENDBRANCH  13  15
ENDBRANCH   8   9
ENDBRANCH   7   8
BRANCH   5  23
ATOM     23  N   UNL     1       2.373  -0.968   1.157  1.00  0.00    -0.324 N 
BRANCH  23  24
ATOM     24  C   UNL     1       3.214  -0.342   0.193  1.00  0.00     0.041 A 
ATOM     25  C   UNL     1       4.060  -1.075  -0.631  1.00  0.00    -0.035 A 
ATOM     26  C   UNL     1       2.986   0.968  -0.208  1.00  0.00    -0.035 A 
ATOM     27  C   UNL     1       4.925  -0.409  -1.492  1.00  0.00    -0.018 A 
ATOM     28  C   UNL     1       4.088   1.641  -0.720  1.00  0.00    -0.018 A 
ATOM     29  C   UNL     1       5.119   0.960  -1.355  1.00  0.00     0.119 A 
BRANCH  29  30
ATOM     30  O   UNL     1       6.385   1.542  -1.478  1.00  0.00    -0.492 OA
BRANCH  30  31
ATOM     31  C   UNL     1       6.931   2.081  -0.276  1.00  0.00     0.101 C 
BRANCH  31  32
ATOM     32  C   UNL     1       8.043   1.209   0.273  1.00  0.00     0.032 C 
BRANCH  32  33
ATOM     33  N   UNL     1       7.889  -0.170  -0.176  1.00  0.00    -0.300 NA
ATOM     34  C   UNL     1       8.005  -1.045   0.960  1.00  0.00    -0.002 C 
ATOM     35  C   UNL     1       8.949  -0.492  -1.096  1.00  0.00    -0.002 C 
ATOM     36  C   UNL     1       9.241  -1.882   0.771  1.00  0.00    -0.039 C 
ATOM     37  C   UNL     1       9.369  -1.914  -0.746  1.00  0.00    -0.039 C 
ENDBRANCH  32  33
ENDBRANCH  31  32
ENDBRANCH  30  31
ENDBRANCH  29  30
ENDBRANCH  23  24
ENDBRANCH   5  23
TORSDOF 11

