
     RDKit          3D

 35 39  0  0  0  0  0  0  0  0999 V2000
   -6.0818    4.5610    1.7851 C   0  0  0  0  0  0  0  0  0  0  0  0
   -5.8935    3.4446    1.1458 C   0  0  0  0  0  0  0  0  0  0  0  0
   -5.7992    2.3260    0.6812 C   0  0  0  0  0  0  0  0  0  0  0  0
   -5.7511    1.0083    0.0862 C   0  0  0  0  0  0  0  0  0  0  0  0
   -6.4636    0.8422   -0.9508 O   0  0  0  0  0  0  0  0  0  0  0  0
   -4.4836    0.3720    0.0438 N   0  0  0  0  0  0  0  0  0  0  0  0
   -3.6918    0.0462   -1.1335 C   0  0  0  0  0  0  0  0  0  0  0  0
   -4.4427   -1.2180   -1.4299 C   0  0  0  0  0  0  0  0  0  0  0  0
   -4.5264   -1.9920   -0.2050 C   0  0  0  0  0  0  0  0  0  0  0  0
   -4.2164   -0.8836    1.0021 C   0  0  1  0  0  0  0  0  0  0  0  0
   -2.6181   -0.8495    0.6930 C   0  0  0  0  0  0  0  0  0  0  0  0
   -1.8490   -1.8961    0.5811 N   0  0  0  0  0  0  0  0  0  0  0  0
   -0.6536   -1.3680    0.2002 C   0  0  0  0  0  0  0  0  0  0  0  0
    0.5840   -2.0177   -0.1479 C   0  0  0  0  0  0  0  0  0  0  0  0
    1.0564   -2.1813   -1.4438 C   0  0  0  0  0  0  0  0  0  0  0  0
    2.4120   -2.4683   -1.5817 C   0  0  0  0  0  0  0  0  0  0  0  0
    3.1960   -2.7010   -0.4616 C   0  0  0  0  0  0  0  0  0  0  0  0
    4.5441   -2.1341   -0.3070 C   0  0  0  0  0  0  0  0  0  0  0  0
    5.2067   -2.6563    0.6108 O   0  0  0  0  0  0  0  0  0  0  0  0
    4.8714   -0.8079   -0.6836 N   0  0  0  0  0  0  0  0  0  0  0  0
    5.5010    0.1304    0.1982 C   0  0  0  0  0  0  0  0  0  0  0  0
    4.7369    1.1656    0.7245 C   0  0  0  0  0  0  0  0  0  0  0  0
    5.1972    2.4500    0.8037 C   0  0  0  0  0  0  0  0  0  0  0  0
    6.5250    2.7056    0.5395 C   0  0  0  0  0  0  0  0  0  0  0  0
    7.3399    1.5966    0.4392 C   0  0  0  0  0  0  0  0  0  0  0  0
    6.8297    0.3940    0.1333 N   0  0  0  0  0  0  0  0  0  0  0  0
    2.4827   -3.2354    0.6044 C   0  0  0  0  0  0  0  0  0  0  0  0
    1.1385   -2.9137    0.7615 C   0  0  0  0  0  0  0  0  0  0  0  0
   -0.6473   -0.0375    0.6152 C   0  0  0  0  0  0  0  0  0  0  0  0
    0.1110    1.0746    0.2595 C   0  0  0  0  0  0  0  0  0  0  0  0
    1.0636    0.9485   -0.8039 N   0  0  0  0  0  0  0  0  0  0  0  0
   -0.3216    2.3199    0.5805 N   0  0  0  0  0  0  0  0  0  0  0  0
   -1.3971    2.4793    1.3858 C   0  0  0  0  0  0  0  0  0  0  0  0
   -2.0889    1.3400    1.7786 C   0  0  0  0  0  0  0  0  0  0  0  0
   -1.8706    0.1555    1.1724 N   0  0  0  0  0  0  0  0  0  0  0  0
  1  2  1  0
  2  3  3  0
  3  4  1  0
  4  5  2  0
  4  6  1  0
  6  7  1  0
  7  8  1  0
  8  9  1  0
  9 10  1  0
 10 11  1  6
 11 12  2  0
 12 13  1  0
 13 14  1  0
 14 15  2  0
 15 16  1  0
 16 17  2  0
 17 18  1  0
 18 19  2  0
 18 20  1  0
 20 21  1  0
 21 22  2  0
 22 23  1  0
 23 24  2  0
 24 25  1  0
 25 26  2  0
 17 27  1  0
 27 28  2  0
 13 29  2  0
 29 30  1  0
 30 31  1  0
 30 32  2  0
 32 33  1  0
 33 34  2  0
 34 35  1  0
 10  6  1  0
 35 11  1  0
 28 14  1  0
 35 29  1  0
 26 21  1  0
M  END
>  <zinc_id>  (1) 
ZINC000208774715

>  <smiles>  (1) 
CC#CC(=O)N1CCC[C@H]1c1nc(-c2ccc(C(=O)Nc3ccccn3)cc2)c2c(N)nccn12

$$$$
