REMARK SMILES Nc1cc(C(F)(F)F)c(-c2cc(N3CCOCC3)nc(N3CCOCC3)n2)cn1
REMARK SMILES IDX 1 1 2 2 3 3 4 4 9 5 28 6 29 7 5 8 6 9 7 10 8 11 10 12 11 13
REMARK SMILES IDX 27 14 12 15 20 16 19 17 13 18 14 19 18 20 15 21 17 22 16 23
REMARK SMILES IDX 21 24 22 25 26 26 23 27 25 28 24 29
REMARK H PARENT
REMARK Flexibility Score: inf
ROOT
ATOM      1  N   UNL     1      -5.306   2.101  -0.774  1.00  0.00    -0.384 N 
ATOM      2  C   UNL     1      -4.301   1.367  -0.090  1.00  0.00     0.123 A 
ATOM      3  C   UNL     1      -4.048   0.027  -0.357  1.00  0.00    -0.007 A 
ATOM      4  C   UNL     1      -2.838  -0.575  -0.017  1.00  0.00     0.070 A 
ATOM      5  C   UNL     1      -1.885   0.225   0.584  1.00  0.00     0.031 A 
ATOM      6  C   UNL     1      -2.312   1.461   1.058  1.00  0.00     0.039 A 
ATOM      7  N   UNL     1      -3.593   1.885   0.942  1.00  0.00    -0.239 NA
ENDROOT
BRANCH   4   8
ATOM      8  C   UNL     1      -2.680  -2.018   0.173  1.00  0.00     0.417 C 
ATOM      9  F   UNL     1      -2.092  -2.409   1.344  1.00  0.00    -0.166 F 
ATOM     10  F   UNL     1      -3.989  -2.498   0.343  1.00  0.00    -0.166 F 
ATOM     11  F   UNL     1      -2.274  -2.714  -0.937  1.00  0.00    -0.166 F 
ENDBRANCH   4   8
BRANCH   5  12
ATOM     12  C   UNL     1      -0.513   0.021   0.229  1.00  0.00     0.080 A 
ATOM     13  C   UNL     1       0.141  -1.084  -0.172  1.00  0.00     0.007 A 
ATOM     14  N   UNL     1       0.249   1.139   0.086  1.00  0.00    -0.213 NA
ATOM     15  C   UNL     1       1.489  -1.136  -0.474  1.00  0.00     0.134 A 
ATOM     16  C   UNL     1       1.345   1.200  -0.672  1.00  0.00     0.228 A 
ATOM     17  N   UNL     1       2.056   0.051  -0.799  1.00  0.00    -0.196 NA
BRANCH  15  18
ATOM     18  N   UNL     1       2.277  -2.287  -0.147  1.00  0.00    -0.352 N 
ATOM     19  C   UNL     1       3.447  -2.026   0.679  1.00  0.00     0.043 C 
ATOM     20  C   UNL     1       2.329  -3.437  -1.039  1.00  0.00     0.043 C 
ATOM     21  C   UNL     1       3.993  -3.275   1.313  1.00  0.00     0.064 C 
ATOM     22  C   UNL     1       2.980  -4.575  -0.305  1.00  0.00     0.064 C 
ATOM     23  O   UNL     1       4.189  -4.204   0.299  1.00  0.00    -0.378 OA
ENDBRANCH  15  18
BRANCH  16  24
ATOM     24  N   UNL     1       2.076   2.434  -0.657  1.00  0.00    -0.336 N 
ATOM     25  C   UNL     1       2.474   2.888   0.674  1.00  0.00     0.044 C 
ATOM     26  C   UNL     1       1.514   3.487  -1.500  1.00  0.00     0.044 C 
ATOM     27  C   UNL     1       1.484   3.994   1.022  1.00  0.00     0.064 C 
ATOM     28  C   UNL     1       1.973   4.853  -1.075  1.00  0.00     0.064 C 
ATOM     29  O   UNL     1       1.813   5.106   0.271  1.00  0.00    -0.378 OA
ENDBRANCH  16  24
ENDBRANCH   5  12
TORSDOF 4

