
     RDKit          3D

 33 36  0  0  0  0  0  0  0  0999 V2000
    6.8543    2.0439   -1.3794 C   0  0  0  0  0  0  0  0  0  0  0  0
    8.1102    1.4990   -0.2463 S   0  0  0  0  0  0  0  0  0  0  0  0
    8.3214    2.5679    0.7828 O   0  0  0  0  0  0  0  0  0  0  0  0
    9.3748    1.3060   -1.0195 O   0  0  0  0  0  0  0  0  0  0  0  0
    7.6460    0.0004    0.4884 N   0  0  0  0  0  0  0  0  0  0  0  0
    6.2764   -0.3847    0.4230 C   0  0  0  0  0  0  0  0  0  0  0  0
    5.7360   -1.0126   -0.6931 C   0  0  0  0  0  0  0  0  0  0  0  0
    4.3888   -0.8229   -0.9749 C   0  0  0  0  0  0  0  0  0  0  0  0
    3.5604   -0.0877   -0.1601 C   0  0  0  0  0  0  0  0  0  0  0  0
    2.1517    0.1715   -0.4786 C   0  0  0  0  0  0  0  0  0  0  0  0
    1.5140    1.2961    0.0310 C   0  0  0  0  0  0  0  0  0  0  0  0
    0.2191    1.2855    0.2981 O   0  0  0  0  0  0  0  0  0  0  0  0
   -0.4068    0.1287    0.4324 C   0  0  0  0  0  0  0  0  0  0  0  0
   -1.7030    0.1435    0.8996 C   0  0  0  0  0  0  0  0  0  0  0  0
   -2.5411   -0.9122    0.5753 C   0  0  0  0  0  0  0  0  0  0  0  0
   -3.6985   -1.0447    1.3147 O   0  0  0  0  0  0  0  0  0  0  0  0
   -4.6563   -2.0507    1.0650 C   0  0  0  0  0  0  0  0  0  0  0  0
   -5.7200   -1.4764    0.1949 C   0  0  0  0  0  0  0  0  0  0  0  0
   -5.7414   -1.7638   -1.1533 C   0  0  0  0  0  0  0  0  0  0  0  0
   -6.3135   -0.9161   -2.0921 C   0  0  0  0  0  0  0  0  0  0  0  0
   -6.7439    0.3308   -1.6825 C   0  0  0  0  0  0  0  0  0  0  0  0
   -6.9110    0.5366   -0.3247 C   0  0  0  0  0  0  0  0  0  0  0  0
   -7.3716    1.8707    0.0706 C   0  0  0  0  0  0  0  0  0  0  0  0
   -7.2294    2.3038    1.2417 O   0  0  0  0  0  0  0  0  0  0  0  0
   -8.4617    2.3745   -0.6407 O   0  0  0  0  0  0  0  0  0  0  0  0
   -6.2121   -0.2319    0.5687 C   0  0  0  0  0  0  0  0  0  0  0  0
   -2.1562   -1.8414   -0.3789 C   0  0  0  0  0  0  0  0  0  0  0  0
   -0.8348   -1.9191   -0.7208 C   0  0  0  0  0  0  0  0  0  0  0  0
   -0.0000   -0.8706   -0.4432 C   0  0  0  0  0  0  0  0  0  0  0  0
    1.3016   -0.8303   -0.9301 C   0  0  0  0  0  0  0  0  0  0  0  0
    1.8038   -1.8358   -1.4714 O   0  0  0  0  0  0  0  0  0  0  0  0
    4.0722    0.2448    1.0884 C   0  0  0  0  0  0  0  0  0  0  0  0
    5.3708   -0.1028    1.4374 C   0  0  0  0  0  0  0  0  0  0  0  0
  1  2  1  0
  2  3  2  0
  2  4  2  0
  2  5  1  0
  5  6  1  0
  6  7  2  0
  7  8  1  0
  8  9  2  0
  9 10  1  0
 10 11  2  0
 11 12  1  0
 12 13  1  0
 13 14  2  0
 14 15  1  0
 15 16  1  0
 16 17  1  0
 17 18  1  0
 18 19  2  0
 19 20  1  0
 20 21  2  0
 21 22  1  0
 22 23  1  0
 23 24  2  0
 23 25  1  0
 22 26  2  0
 15 27  2  0
 27 28  1  0
 28 29  2  0
 29 30  1  0
 30 31  2  0
  9 32  1  0
 32 33  2  0
 33  6  1  0
 30 10  1  0
 29 13  1  0
 26 18  1  0
M  END
>  <zinc_id>  (1) 
ZINC000043172134

>  <smiles>  (1) 
CS(=O)(=O)Nc1ccc(-c2coc3cc(OCc4cccc(C(=O)O)c4)ccc3c2=O)cc1

$$$$
