
     RDKit          3D

 37 40  0  0  0  0  0  0  0  0999 V2000
   -2.2454    1.9854    0.5013 C   0  0  0  0  0  0  0  0  0  0  0  0
   -1.0138    1.1835    0.6401 C   0  0  0  0  0  0  0  0  0  0  0  0
   -0.2214    1.4378    1.7525 C   0  0  0  0  0  0  0  0  0  0  0  0
    0.7601    0.5590    2.0678 N   0  0  0  0  0  0  0  0  0  0  0  0
    1.0249   -0.4941    1.2600 C   0  0  0  0  0  0  0  0  0  0  0  0
    2.3727   -0.9677    1.1572 N   0  0  0  0  0  0  0  0  0  0  0  0
    3.2144   -0.3420    0.1934 C   0  0  0  0  0  0  0  0  0  0  0  0
    4.0602   -1.0745   -0.6309 C   0  0  0  0  0  0  0  0  0  0  0  0
    4.9249   -0.4094   -1.4915 C   0  0  0  0  0  0  0  0  0  0  0  0
    5.1194    0.9597   -1.3548 C   0  0  0  0  0  0  0  0  0  0  0  0
    6.3852    1.5415   -1.4777 O   0  0  0  0  0  0  0  0  0  0  0  0
    6.9308    2.0806   -0.2759 C   0  0  0  0  0  0  0  0  0  0  0  0
    8.0425    1.2090    0.2729 C   0  0  0  0  0  0  0  0  0  0  0  0
    7.8893   -0.1702   -0.1765 N   0  0  0  0  0  0  0  0  0  0  0  0
    8.0050   -1.0450    0.9600 C   0  0  0  0  0  0  0  0  0  0  0  0
    9.2413   -1.8819    0.7707 C   0  0  0  0  0  0  0  0  0  0  0  0
    9.3687   -1.9142   -0.7460 C   0  0  0  0  0  0  0  0  0  0  0  0
    8.9488   -0.4923   -1.0957 C   0  0  0  0  0  0  0  0  0  0  0  0
    4.0881    1.6412   -0.7199 C   0  0  0  0  0  0  0  0  0  0  0  0
    2.9864    0.9683   -0.2085 C   0  0  0  0  0  0  0  0  0  0  0  0
    0.0708   -0.8473    0.3878 N   0  0  0  0  0  0  0  0  0  0  0  0
   -0.8233    0.0347   -0.1179 C   0  0  0  0  0  0  0  0  0  0  0  0
   -1.7047   -0.3145   -1.1729 N   0  0  0  0  0  0  0  0  0  0  0  0
   -2.9395   -0.9443   -0.8152 C   0  0  0  0  0  0  0  0  0  0  0  0
   -2.8230   -2.0866   -0.0333 C   0  0  0  0  0  0  0  0  0  0  0  0
   -3.9827   -2.5774    0.5522 C   0  0  0  0  0  0  0  0  0  0  0  0
   -5.0340   -1.7007    0.7737 C   0  0  0  0  0  0  0  0  0  0  0  0
   -5.2067   -0.5892   -0.0414 C   0  0  0  0  0  0  0  0  0  0  0  0
   -6.3528    0.6499    0.4551 S   0  0  0  0  0  0  0  0  0  0  0  0
   -5.6924    1.3884    1.5979 O   0  0  0  0  0  0  0  0  0  0  0  0
   -6.5011    1.6343   -0.6618 O   0  0  0  0  0  0  0  0  0  0  0  0
   -7.8448   -0.0482    0.9345 N   0  0  0  0  0  0  0  0  0  0  0  0
   -8.9115    0.1872   -0.0065 C   0  0  0  0  0  0  0  0  0  0  0  0
   -8.4543    0.1627   -1.4408 C   0  0  0  0  0  0  0  0  0  0  0  0
   -9.5845    1.5099    0.3155 C   0  0  0  0  0  0  0  0  0  0  0  0
   -9.9388   -0.9186    0.1854 C   0  0  0  0  0  0  0  0  0  0  0  0
   -4.1586   -0.3150   -0.9067 C   0  0  0  0  0  0  0  0  0  0  0  0
  1  2  1  0
  2  3  2  0
  3  4  1  0
  4  5  2  0
  5  6  1  0
  6  7  1  0
  7  8  2  0
  8  9  1  0
  9 10  2  0
 10 11  1  0
 11 12  1  0
 12 13  1  0
 13 14  1  0
 14 15  1  0
 15 16  1  0
 16 17  1  0
 17 18  1  0
 10 19  1  0
 19 20  2  0
  5 21  1  0
 21 22  2  0
 22 23  1  0
 23 24  1  0
 24 25  2  0
 25 26  1  0
 26 27  2  0
 27 28  1  0
 28 29  1  0
 29 30  2  0
 29 31  2  0
 29 32  1  0
 32 33  1  0
 33 34  1  0
 33 35  1  0
 33 36  1  0
 28 37  2  0
 22  2  1  0
 37 24  1  0
 20  7  1  0
 18 14  1  0
M  END
>  <zinc_id>  (1) 
ZINC000019862646

>  <smiles>  (1) 
Cc1cnc(Nc2ccc(OCCN3CCCC3)cc2)nc1Nc1cccc(S(=O)(=O)NC(C)(C)C)c1

$$$$
