
     RDKit          3D

 19 20  0  0  0  0  0  0  0  0999 V2000
    4.6821    2.1979    0.5773 C   0  0  0  0  0  0  0  0  0  0  0  0
    4.7679    1.2244    0.5695 O   0  0  0  0  0  0  0  0  0  0  0  0
    3.9547    0.2104    0.0445 C   0  0  0  0  0  0  0  0  0  0  0  0
    3.5665    0.2078   -1.2922 C   0  0  0  0  0  0  0  0  0  0  0  0
    2.2338    0.0765   -1.6671 C   0  0  0  0  0  0  0  0  0  0  0  0
    1.3331   -0.4288   -0.7573 C   0  0  0  0  0  0  0  0  0  0  0  0
   -0.0915   -0.1235   -0.9334 C   0  0  0  0  0  0  0  0  0  0  0  0
   -0.8772   -1.3463   -0.1351 C   0  0  1  0  0  0  0  0  0  0  0  0
   -0.9426   -0.5081    1.1962 N   0  0  0  0  0  0  0  0  0  0  0  0
   -2.0885   -0.7593    1.7858 C   0  0  0  0  0  0  0  0  0  0  0  0
   -3.1777   -1.4274    0.7388 C   0  0  2  0  0  0  0  0  0  0  0  0
   -2.4029   -2.7592    0.6317 O   0  0  0  0  0  0  0  0  0  0  0  0
   -2.4077   -0.7439   -0.6656 C   0  0  1  0  0  0  0  0  0  0  0  0
   -2.2555    0.6503   -0.0505 O   0  0  0  0  0  0  0  0  0  0  0  0
   -3.4341    1.3379   -0.1866 C   0  0  0  0  0  0  0  0  0  0  0  0
   -3.3705    2.8223   -0.0919 C   0  0  0  0  0  0  0  0  0  0  0  0
   -4.4512    0.8170    0.3511 O   0  0  0  0  0  0  0  0  0  0  0  0
    1.8412   -0.9000    0.4408 C   0  0  0  0  0  0  0  0  0  0  0  0
    3.1200   -0.5478    0.8582 C   0  0  0  0  0  0  0  0  0  0  0  0
  1  2  1  0
  2  3  1  0
  3  4  2  0
  4  5  1  0
  5  6  2  0
  6  7  1  0
  8  7  1  6
  8  9  1  0
  9 10  1  0
 10 11  1  0
 11 12  1  6
 11 13  1  0
 13 14  1  1
 14 15  1  0
 15 16  1  0
 15 17  2  0
  6 18  1  0
 18 19  2  0
 19  3  1  0
 13  8  1  0
M  END
>  <zinc_id>  (1) 
ZINC000000000954

>  <smiles>  (1) 
COc1ccc(C[C@H]2NC[C@H](O)[C@H]2OC(C)=O)cc1

$$$$
