
     RDKit          3D

 13 12  0  0  0  0  0  0  0  0999 V2000
    4.4534    0.4492    1.4280 C   0  0  0  0  0  0  0  0  0  0  0  0
    4.5389    0.0344   -0.0203 C   0  0  0  0  0  0  0  0  0  0  0  0
    3.3695    0.5024   -0.8376 C   0  0  0  0  0  0  0  0  0  0  0  0
    2.0788   -0.1574   -0.4465 C   0  0  0  0  0  0  0  0  0  0  0  0
    0.9617    0.4673   -1.2276 C   0  0  0  0  0  0  0  0  0  0  0  0
   -0.2692   -0.3834   -1.3024 C   0  0  0  0  0  0  0  0  0  0  0  0
   -0.8933   -0.1816    0.2212 C   0  0  1  0  0  0  0  0  0  0  0  0
   -2.0610    0.8543   -0.3397 C   0  0  0  0  0  0  0  0  0  0  0  0
   -2.4612    1.5793    0.9352 C   0  0  0  0  0  0  0  0  0  0  0  0
   -3.8036    2.2350    0.6452 C   0  0  0  0  0  0  0  0  0  0  0  0
   -1.8713   -1.4709    0.0448 C   0  0  0  0  0  0  0  0  0  0  0  0
   -1.1856   -2.5206   -0.1069 O   0  0  0  0  0  0  0  0  0  0  0  0
   -2.8572   -1.4080    1.0066 O   0  0  0  0  0  0  0  0  0  0  0  0
  1  2  1  0
  2  3  1  0
  3  4  1  0
  4  5  1  0
  5  6  1  0
  7  6  1  6
  7  8  1  0
  8  9  1  0
  9 10  1  0
  7 11  1  0
 11 12  2  0
 11 13  1  0
M  END
>  <zinc_id>  (1) 
ZINC000002509961

>  <smiles>  (1) 
CCCCCC[C@@H](CCC)C(=O)O

$$$$
