
     RDKit          3D

 24 25  0  0  0  0  0  0  0  0999 V2000
    5.3318   -1.8179   -1.5097 C   0  0  0  0  0  0  0  0  0  0  0  0
    5.5405   -0.4080   -1.4948 O   0  0  0  0  0  0  0  0  0  0  0  0
    4.7209    0.4177   -0.7219 C   0  0  0  0  0  0  0  0  0  0  0  0
    3.7717    1.2243   -1.3324 C   0  0  0  0  0  0  0  0  0  0  0  0
    2.6067    1.5409   -0.6480 C   0  0  0  0  0  0  0  0  0  0  0  0
    2.2798    0.9133    0.5471 C   0  0  0  0  0  0  0  0  0  0  0  0
    0.8966    0.5384    0.8610 C   0  0  0  0  0  0  0  0  0  0  0  0
    0.2395   -0.2923    0.0840 C   0  0  0  0  0  0  0  0  0  0  0  0
   -1.1821   -0.2585   -0.1669 C   0  0  0  0  0  0  0  0  0  0  0  0
   -1.5928   -0.6845   -1.2801 O   0  0  0  0  0  0  0  0  0  0  0  0
   -2.1561    0.2317    0.7298 N   0  0  0  0  0  0  0  0  0  0  0  0
   -3.4207   -0.4407    0.7579 C   0  0  0  0  0  0  0  0  0  0  0  0
   -3.5495   -1.6374    1.4474 C   0  0  0  0  0  0  0  0  0  0  0  0
   -4.5796   -2.4858    1.0954 C   0  0  0  0  0  0  0  0  0  0  0  0
   -5.3905   -2.2171    0.0083 C   0  0  0  0  0  0  0  0  0  0  0  0
   -5.4124   -0.9007   -0.4356 C   0  0  0  0  0  0  0  0  0  0  0  0
   -4.3917   -0.0115   -0.1381 C   0  0  0  0  0  0  0  0  0  0  0  0
   -4.5727    1.4311   -0.2729 C   0  0  0  0  0  0  0  0  0  0  0  0
   -4.1170    2.0576   -1.2705 O   0  0  0  0  0  0  0  0  0  0  0  0
   -5.4517    2.1465    0.5402 O   0  0  0  0  0  0  0  0  0  0  0  0
    3.3528    0.4111    1.2726 C   0  0  0  0  0  0  0  0  0  0  0  0
    4.5832    0.2409    0.6497 C   0  0  0  0  0  0  0  0  0  0  0  0
    5.6548   -0.3756    1.2990 O   0  0  0  0  0  0  0  0  0  0  0  0
    6.8384    0.3764    1.5577 C   0  0  0  0  0  0  0  0  0  0  0  0
  1  2  1  0
  2  3  1  0
  3  4  2  0
  4  5  1  0
  5  6  2  0
  6  7  1  0
  7  8  2  0
  8  9  1  0
  9 10  2  0
  9 11  1  0
 11 12  1  0
 12 13  2  0
 13 14  1  0
 14 15  2  0
 15 16  1  0
 16 17  2  0
 17 18  1  0
 18 19  2  0
 18 20  1  0
  6 21  1  0
 21 22  2  0
 22 23  1  0
 23 24  1  0
 22  3  1  0
 17 12  1  0
M  END
>  <zinc_id>  (1) 
ZINC000000000797

>  <smiles>  (1) 
COc1ccc(/C=C/C(=O)Nc2ccccc2C(=O)O)cc1OC

$$$$
