
     RDKit          3D

 22 24  0  0  0  0  0  0  0  0999 V2000
    6.9212    0.6166   -0.0743 C   0  0  0  0  0  0  0  0  0  0  0  0
    5.6474   -0.0463    0.2981 C   0  0  0  0  0  0  0  0  0  0  0  0
    4.9582    0.3030    1.4517 C   0  0  0  0  0  0  0  0  0  0  0  0
    3.5903    0.0791    1.5364 C   0  0  0  0  0  0  0  0  0  0  0  0
    2.8672   -0.4833    0.4938 C   0  0  0  0  0  0  0  0  0  0  0  0
    1.5732    0.0797    0.2396 N   0  0  0  0  0  0  0  0  0  0  0  0
    1.1280    1.5708   -0.4402 S   0  0  0  0  0  0  0  0  0  0  0  0
   -0.5768    1.3876   -0.3010 C   0  0  0  0  0  0  0  0  0  0  0  0
   -1.4962    2.2433   -0.4904 O   0  0  0  0  0  0  0  0  0  0  0  0
   -0.6265    0.2979    0.5071 N   0  0  0  0  0  0  0  0  0  0  0  0
   -1.8512   -0.0500    1.2267 C   0  0  0  0  0  0  0  0  0  0  0  0
   -3.0162   -0.1569    0.3279 C   0  0  0  0  0  0  0  0  0  0  0  0
   -3.4126   -1.3820   -0.1965 C   0  0  0  0  0  0  0  0  0  0  0  0
   -4.5559   -1.4373   -0.9835 C   0  0  0  0  0  0  0  0  0  0  0  0
   -5.1569   -0.2424   -1.3104 C   0  0  0  0  0  0  0  0  0  0  0  0
   -6.1134   -0.1564   -2.2706 F   0  0  0  0  0  0  0  0  0  0  0  0
   -5.0154    0.8284   -0.4510 C   0  0  0  0  0  0  0  0  0  0  0  0
   -4.0408    0.7604    0.5266 C   0  0  0  0  0  0  0  0  0  0  0  0
    0.3725   -0.5520    0.2455 C   0  0  0  0  0  0  0  0  0  0  0  0
    0.2034   -1.8107    0.2629 O   0  0  0  0  0  0  0  0  0  0  0  0
    3.6066   -0.9107   -0.5991 C   0  0  0  0  0  0  0  0  0  0  0  0
    4.9939   -0.9387   -0.5363 C   0  0  0  0  0  0  0  0  0  0  0  0
  1  2  1  0
  2  3  2  0
  3  4  1  0
  4  5  2  0
  5  6  1  0
  6  7  1  0
  7  8  1  0
  8  9  2  0
  8 10  1  0
 10 11  1  0
 11 12  1  0
 12 13  2  0
 13 14  1  0
 14 15  2  0
 15 16  1  0
 15 17  1  0
 17 18  2  0
 10 19  1  0
 19 20  2  0
  5 21  1  0
 21 22  2  0
 22  2  1  0
 19  6  1  0
 18 12  1  0
M  END
>  <zinc_id>  (1) 
ZINC000000103936

>  <smiles>  (1) 
Cc1ccc(-n2sc(=O)n(Cc3ccc(F)cc3)c2=O)cc1

$$$$
