REMARK SMILES O[C@H]1CN2CC[C@H](O)[C@@H]2[C@@H](O)[C@@H]1O
REMARK SMILES IDX 8 1 7 2 6 3 5 4 4 5 3 6 2 7 1 8 12 9 13 10 10 11 11 12 9 13
REMARK H PARENT
REMARK Flexibility Score: inf
ROOT
ATOM      1  O   UNL     1      -2.406  -1.382  -0.064  1.00  0.00    -0.391 OA
ATOM      2  C   UNL     1      -2.373   0.126   0.123  1.00  0.00     0.073 C 
ATOM      3  C   UNL     1      -1.597   0.025   1.582  1.00  0.00    -0.012 C 
ATOM      4  C   UNL     1      -1.221   1.484   1.355  1.00  0.00     0.001 C 
ATOM      5  N   UNL     1      -0.379   1.392   0.319  1.00  0.00    -0.293 NA
ATOM      6  C   UNL     1       0.941   1.685   0.236  1.00  0.00     0.027 C 
ATOM      7  C   UNL     1       1.846   0.388   0.709  1.00  0.00     0.095 C 
ATOM      8  O   UNL     1       3.094   0.915   0.017  1.00  0.00    -0.389 OA
ATOM      9  C   UNL     1       1.377  -0.464  -0.716  1.00  0.00     0.109 C 
ATOM     10  O   UNL     1       2.068  -1.727  -0.280  1.00  0.00    -0.388 OA
ATOM     11  C   UNL     1      -0.078  -0.930   0.058  1.00  0.00     0.100 C 
ATOM     12  O   UNL     1      -0.385  -1.875  -1.079  1.00  0.00    -0.389 OA
ATOM     13  C   UNL     1      -0.886   0.364  -0.709  1.00  0.00     0.064 C 
ENDROOT
TORSDOF 0

