REMARK SMILES CN(c1ccccc1CNc1nc(Nc2ccc3c(c2)CC(=O)N3)ncc1C(F)(F)F)S(C)(=O)=O
REMARK SMILES IDX 9 1 8 2 3 3 4 4 5 5 7 6 6 7 2 8 1 9 32 10 33 11 34 12 35 13
REMARK SMILES IDX 10 14 11 15 12 16 27 17 13 18 26 19 25 20 28 21 29 22 30 23
REMARK SMILES IDX 31 24 14 25 15 26 16 27 20 28 17 29 19 30 18 31 21 32 24 33
REMARK SMILES IDX 22 34 23 35
REMARK H PARENT
REMARK Flexibility Score: inf
ROOT
ATOM      1  C   UNL     1      -2.772   0.555  -1.476  1.00  0.00     0.044 C 
ENDROOT
BRANCH   1   2
ATOM      2  C   UNL     1      -3.118   1.766  -0.682  1.00  0.00    -0.004 A 
ATOM      3  C   UNL     1      -4.095   1.675   0.293  1.00  0.00     0.056 A 
ATOM      4  C   UNL     1      -4.373   2.788   1.067  1.00  0.00    -0.037 A 
ATOM      5  C   UNL     1      -3.584   3.901   0.955  1.00  0.00    -0.060 A 
ATOM      6  C   UNL     1      -2.138   2.735  -0.540  1.00  0.00    -0.055 A 
ATOM      7  C   UNL     1      -2.402   3.819   0.263  1.00  0.00    -0.062 A 
BRANCH   3   8
ATOM      8  N   UNL     1      -4.747   0.454   0.619  1.00  0.00    -0.273 N 
ATOM      9  C   UNL     1      -4.532  -0.090   1.950  1.00  0.00     0.023 C 
BRANCH   8  10
ATOM     10  S   UNL     1      -6.200  -0.029  -0.193  1.00  0.00     0.232 S 
ATOM     11  C   UNL     1      -6.885   1.365  -1.072  1.00  0.00     0.058 C 
ATOM     12  O   UNL     1      -5.821  -1.135  -1.142  1.00  0.00    -0.207 OA
ATOM     13  O   UNL     1      -7.213  -0.560   0.765  1.00  0.00    -0.207 OA
ENDBRANCH   8  10
ENDBRANCH   3   8
ENDBRANCH   1   2
BRANCH   1  14
ATOM     14  N   UNL     1      -2.250  -0.511  -0.658  1.00  0.00    -0.365 N 
BRANCH  14  15
ATOM     15  C   UNL     1      -0.905  -0.968  -0.717  1.00  0.00     0.144 A 
ATOM     16  N   UNL     1       0.124  -0.210  -1.130  1.00  0.00    -0.195 NA
ATOM     17  C   UNL     1      -0.649  -2.218  -0.174  1.00  0.00     0.116 A 
ATOM     18  C   UNL     1       1.417  -0.518  -0.865  1.00  0.00     0.229 A 
ATOM     19  C   UNL     1       0.657  -2.673  -0.304  1.00  0.00     0.047 A 
ATOM     20  N   UNL     1       1.653  -1.835  -0.650  1.00  0.00    -0.221 NA
BRANCH  17  21
ATOM     21  C   UNL     1      -1.538  -2.767   0.895  1.00  0.00     0.421 C 
ATOM     22  F   UNL     1      -1.777  -1.813   1.878  1.00  0.00    -0.166 F 
ATOM     23  F   UNL     1      -0.922  -3.840   1.494  1.00  0.00    -0.166 F 
ATOM     24  F   UNL     1      -2.727  -3.149   0.314  1.00  0.00    -0.166 F 
ENDBRANCH  17  21
BRANCH  18  25
ATOM     25  N   UNL     1       2.341   0.499  -0.520  1.00  0.00    -0.324 N 
BRANCH  25  26
ATOM     26  C   UNL     1       3.624   0.180  -0.030  1.00  0.00     0.041 A 
ATOM     27  C   UNL     1       4.066  -1.115   0.191  1.00  0.00    -0.036 A 
ATOM     28  C   UNL     1       4.581   1.174   0.138  1.00  0.00    -0.033 A 
ATOM     29  C   UNL     1       5.399  -1.406  -0.025  1.00  0.00    -0.036 A 
ATOM     30  C   UNL     1       5.931   0.940  -0.088  1.00  0.00    -0.013 A 
ATOM     31  C   UNL     1       6.320  -0.387  -0.211  1.00  0.00     0.045 A 
ATOM     32  C   UNL     1       7.113   1.796  -0.381  1.00  0.00     0.054 C 
ATOM     33  N   UNL     1       7.736  -0.474  -0.265  1.00  0.00    -0.326 N 
ATOM     34  C   UNL     1       8.238   0.863  -0.183  1.00  0.00     0.228 C 
ATOM     35  O   UNL     1       9.449   1.186   0.012  1.00  0.00    -0.274 OA
ENDBRANCH  25  26
ENDBRANCH  18  25
ENDBRANCH  14  15
ENDBRANCH   1  14
TORSDOF 8

