
     RDKit          3D

 28 31  0  0  0  0  0  0  0  0999 V2000
    6.6481   -2.7633    0.0853 N   0  0  0  0  0  0  0  0  0  0  0  0
    5.7037   -1.9950   -0.6193 N   0  0  0  0  0  0  0  0  0  0  0  0
    4.8671   -1.0955    0.1043 C   0  0  0  0  0  0  0  0  0  0  0  0
    4.9950   -0.9853    1.3591 O   0  0  0  0  0  0  0  0  0  0  0  0
    4.1051   -0.1073   -0.6901 C   0  0  0  0  0  0  0  0  0  0  0  0
    3.1507    1.0187    0.3459 S   0  0  0  0  0  0  0  0  0  0  0  0
    1.5013    0.3584    0.6105 C   0  0  0  0  0  0  0  0  0  0  0  0
    1.3021   -0.9282    0.9862 N   0  0  0  0  0  0  0  0  0  0  0  0
    0.1983   -1.6244    0.6148 C   0  0  0  0  0  0  0  0  0  0  0  0
   -0.1569   -3.2574    0.2149 S   0  0  0  0  0  0  0  0  0  0  0  0
   -1.7498   -3.0380   -0.3887 C   0  0  0  0  0  0  0  0  0  0  0  0
   -2.0058   -1.7356    0.0300 C   0  0  0  0  0  0  0  0  0  0  0  0
   -3.3934   -1.2423    0.0271 C   0  0  0  0  0  0  0  0  0  0  0  0
   -4.1402   -1.3643   -1.1386 C   0  0  0  0  0  0  0  0  0  0  0  0
   -5.5268   -1.2698   -1.1341 C   0  0  0  0  0  0  0  0  0  0  0  0
   -6.1543   -1.7392    0.0131 C   0  0  0  0  0  0  0  0  0  0  0  0
   -5.4577   -1.6903    1.2135 C   0  0  0  0  0  0  0  0  0  0  0  0
   -4.1365   -1.2590    1.2015 C   0  0  0  0  0  0  0  0  0  0  0  0
   -0.8520   -0.9717   -0.0188 C   0  0  0  0  0  0  0  0  0  0  0  0
   -0.7837    0.4171   -0.0042 C   0  0  0  0  0  0  0  0  0  0  0  0
   -1.8115    1.1465    0.0273 O   0  0  0  0  0  0  0  0  0  0  0  0
    0.3926    1.0206    0.2035 N   0  0  0  0  0  0  0  0  0  0  0  0
    0.4922    2.4483    0.1300 C   0  0  0  0  0  0  0  0  0  0  0  0
   -0.3271    3.1807   -0.7038 C   0  0  0  0  0  0  0  0  0  0  0  0
   -0.4111    4.5539   -0.6265 C   0  0  0  0  0  0  0  0  0  0  0  0
    0.5371    5.2348    0.1000 C   0  0  0  0  0  0  0  0  0  0  0  0
    1.5371    4.5315    0.7238 C   0  0  0  0  0  0  0  0  0  0  0  0
    1.4764    3.1559    0.7982 C   0  0  0  0  0  0  0  0  0  0  0  0
  1  2  1  0
  2  3  1  0
  3  4  2  0
  3  5  1  0
  5  6  1  0
  6  7  1  0
  7  8  2  0
  8  9  1  0
  9 10  1  0
 10 11  1  0
 11 12  2  0
 12 13  1  0
 13 14  2  0
 14 15  1  0
 15 16  2  0
 16 17  1  0
 17 18  2  0
 12 19  1  0
 19 20  1  0
 20 21  2  0
 20 22  1  0
 22 23  1  0
 23 24  2  0
 24 25  1  0
 25 26  2  0
 26 27  1  0
 27 28  2  0
 22  7  1  0
 28 23  1  0
 19  9  2  0
 18 13  1  0
M  END
>  <zinc_id>  (1) 
ZINC000000897469

>  <smiles>  (1) 
NNC(=O)CSc1nc2scc(-c3ccccc3)c2c(=O)n1-c1ccccc1

$$$$
