REMARK SMILES Cc1cc(C(=O)Cn2cc(C#N)ccc2=O)c(C)n1Cc1ccccc1
REMARK SMILES IDX 5 1 6 2 4 3 1 4 2 5 3 6 19 7 17 8 18 9 20 10 21 11 22 12
REMARK SMILES IDX 26 13 23 14 25 15 24 16 7 17 8 18 9 19 15 20 10 21 14 22
REMARK SMILES IDX 16 23 13 24 11 25 12 26
REMARK H PARENT
REMARK Flexibility Score: inf
ROOT
ATOM      1  C   UNL     1      -1.344   0.544  -0.047  1.00  0.00     0.184 C 
ATOM      2  O   UNL     1      -1.858  -0.348  -0.788  1.00  0.00    -0.292 OA
ENDROOT
BRANCH   1   3
ATOM      3  C   UNL     1       0.074   0.337   0.275  1.00  0.00     0.040 A 
ATOM      4  C   UNL     1       2.541  -1.954   1.701  1.00  0.00    -0.024 C 
ATOM      5  C   UNL     1       1.887  -0.741   1.116  1.00  0.00     0.016 A 
ATOM      6  C   UNL     1       0.616  -0.261   1.405  1.00  0.00    -0.030 A 
ATOM      7  N   UNL     1       2.238  -0.133  -0.043  1.00  0.00    -0.344 N 
ATOM      8  C   UNL     1       1.147   0.449  -0.599  1.00  0.00     0.026 A 
ATOM      9  C   UNL     1       1.033   1.023  -1.973  1.00  0.00    -0.023 C 
BRANCH   7  10
ATOM     10  C   UNL     1       3.328  -0.622  -0.881  1.00  0.00     0.048 C 
BRANCH  10  11
ATOM     11  C   UNL     1       4.619   0.053  -0.539  1.00  0.00    -0.028 A 
ATOM     12  C   UNL     1       5.490   0.251  -1.604  1.00  0.00    -0.057 A 
ATOM     13  C   UNL     1       5.219  -0.302   0.662  1.00  0.00    -0.057 A 
ATOM     14  C   UNL     1       6.868   0.244  -1.437  1.00  0.00    -0.062 A 
ATOM     15  C   UNL     1       6.581  -0.416   0.817  1.00  0.00    -0.062 A 
ATOM     16  C   UNL     1       7.413  -0.186  -0.247  1.00  0.00    -0.062 A 
ENDBRANCH  10  11
ENDBRANCH   7  10
ENDBRANCH   1   3
BRANCH   1  17
ATOM     17  C   UNL     1      -2.184   1.291   0.931  1.00  0.00     0.089 C 
BRANCH  17  18
ATOM     18  N   UNL     1      -3.582   0.979   0.771  1.00  0.00    -0.306 N 
ATOM     19  C   UNL     1      -3.946  -0.312   0.950  1.00  0.00     0.025 A 
ATOM     20  C   UNL     1      -4.448   1.911   0.309  1.00  0.00     0.251 A 
ATOM     21  C   UNL     1      -5.155  -0.808   0.484  1.00  0.00     0.069 A 
ATOM     22  C   UNL     1      -5.754   1.472   0.129  1.00  0.00     0.005 A 
ATOM     23  O   UNL     1      -3.967   2.892  -0.305  1.00  0.00    -0.269 OA
ATOM     24  C   UNL     1      -6.062   0.124  -0.003  1.00  0.00    -0.037 A 
BRANCH  21  25
ATOM     25  C   UNL     1      -5.366  -2.225   0.291  1.00  0.00     0.101 C 
ATOM     26  N   UNL     1      -5.387  -3.261  -0.239  1.00  0.00    -0.192 NA
ENDBRANCH  21  25
ENDBRANCH  17  18
ENDBRANCH   1  17
TORSDOF 6

