REMARK SMILES CCCCc1nc(-c2ccc(OCCCN(CC)CC)cc2)cn1-c1ccc(Oc2ccc(Cl)cc2)cc1
REMARK SMILES IDX 12 1 11 2 8 3 9 4 22 5 10 6 21 7 7 8 5 9 6 10 24 11 23 12
REMARK SMILES IDX 4 13 3 14 2 15 1 16 25 17 26 18 38 19 27 20 37 21 28 22
REMARK SMILES IDX 29 23 30 24 31 25 36 26 32 27 35 28 33 29 34 30 13 31 14 32
REMARK SMILES IDX 15 33 16 34 17 35 18 36 19 37 20 38
REMARK H PARENT
REMARK Flexibility Score: inf
ROOT
ATOM      1  O   UNL     1       5.735  -0.706  -1.241  1.00  0.00    -0.494 OA
ENDROOT
BRANCH   1   2
ATOM      2  C   UNL     1       4.611  -0.342  -0.528  1.00  0.00     0.119 A 
ATOM      3  C   UNL     1       2.060   0.134   0.552  1.00  0.00     0.002 A 
ATOM      4  C   UNL     1       2.937  -0.803   1.083  1.00  0.00    -0.049 A 
ATOM      5  C   UNL     1       2.608   0.994  -0.391  1.00  0.00    -0.049 A 
ATOM      6  C   UNL     1       4.266  -0.872   0.695  1.00  0.00    -0.019 A 
ATOM      7  C   UNL     1       3.840   0.721  -0.975  1.00  0.00    -0.019 A 
BRANCH   3   8
ATOM      8  C   UNL     1       0.628  -0.192   0.557  1.00  0.00     0.089 A 
ATOM      9  C   UNL     1      -1.138  -1.491   0.225  1.00  0.00     0.113 A 
ATOM     10  N   UNL     1       0.044  -1.365   0.877  1.00  0.00    -0.233 NA
ATOM     11  N   UNL     1      -1.417  -0.311  -0.360  1.00  0.00    -0.303 N 
ATOM     12  C   UNL     1      -0.338   0.486  -0.175  1.00  0.00     0.037 A 
BRANCH   9  13
ATOM     13  C   UNL     1      -1.809  -2.767  -0.174  1.00  0.00     0.006 C 
BRANCH  13  14
ATOM     14  C   UNL     1      -0.777  -3.824  -0.549  1.00  0.00    -0.046 C 
BRANCH  14  15
ATOM     15  C   UNL     1      -0.705  -4.897   0.510  1.00  0.00    -0.056 C 
ATOM     16  C   UNL     1      -0.807  -4.302   1.901  1.00  0.00    -0.065 C 
ENDBRANCH  14  15
ENDBRANCH  13  14
ENDBRANCH   9  13
BRANCH  11  17
ATOM     17  C   UNL     1      -2.716   0.153  -0.742  1.00  0.00     0.047 A 
ATOM     18  C   UNL     1      -2.826   1.379  -1.375  1.00  0.00    -0.034 A 
ATOM     19  C   UNL     1      -3.874  -0.318  -0.138  1.00  0.00    -0.034 A 
ATOM     20  C   UNL     1      -4.010   2.107  -1.385  1.00  0.00    -0.017 A 
ATOM     21  C   UNL     1      -4.980   0.502   0.039  1.00  0.00    -0.017 A 
ATOM     22  C   UNL     1      -4.917   1.823  -0.382  1.00  0.00     0.127 A 
BRANCH  22  23
ATOM     23  O   UNL     1      -5.729   2.808   0.189  1.00  0.00    -0.457 OA
BRANCH  23  24
ATOM     24  C   UNL     1      -7.047   2.419   0.444  1.00  0.00     0.127 A 
ATOM     25  C   UNL     1      -7.934   2.576  -0.614  1.00  0.00    -0.018 A 
ATOM     26  C   UNL     1      -7.338   1.385   1.324  1.00  0.00    -0.018 A 
ATOM     27  C   UNL     1      -9.002   1.724  -0.820  1.00  0.00    -0.040 A 
ATOM     28  C   UNL     1      -8.483   0.610   1.196  1.00  0.00    -0.040 A 
ATOM     29  C   UNL     1      -9.136   0.601  -0.029  1.00  0.00     0.041 A 
ATOM     30  Cl  UNL     1      -9.984  -0.797  -0.640  1.00  0.00    -0.084 Cl
ENDBRANCH  23  24
ENDBRANCH  22  23
ENDBRANCH  11  17
ENDBRANCH   3   8
ENDBRANCH   1   2
BRANCH   1  31
ATOM     31  C   UNL     1       6.882   0.125  -1.090  1.00  0.00     0.089 C 
BRANCH  31  32
ATOM     32  C   UNL     1       6.716   1.133   0.013  1.00  0.00    -0.006 C 
BRANCH  32  33
ATOM     33  C   UNL     1       7.870   1.169   0.974  1.00  0.00     0.001 C 
BRANCH  33  34
ATOM     34  N   UNL     1       9.081   0.599   0.447  1.00  0.00    -0.304 NA
BRANCH  34  35
ATOM     35  C   UNL     1       9.021  -0.838   0.539  1.00  0.00    -0.005 C 
ATOM     36  C   UNL     1       8.492  -1.168   1.929  1.00  0.00    -0.052 C 
ENDBRANCH  34  35
BRANCH  34  37
ATOM     37  C   UNL     1       9.426   1.081  -0.865  1.00  0.00    -0.005 C 
ATOM     38  C   UNL     1      10.750   0.464  -1.260  1.00  0.00    -0.052 C 
ENDBRANCH  34  37
ENDBRANCH  33  34
ENDBRANCH  32  33
ENDBRANCH  31  32
ENDBRANCH   1  31
TORSDOF 14

