
     RDKit          3D

 40 41  0  0  0  0  0  0  0  0999 V2000
   -5.2559    1.2721    2.2082 C   0  0  0  0  0  0  0  0  0  0  0  0
   -4.3665    1.2600    1.1418 O   0  0  0  0  0  0  0  0  0  0  0  0
   -3.8324    0.0788    0.6504 C   0  0  0  0  0  0  0  0  0  0  0  0
   -2.7852    0.0231   -0.1862 C   0  0  0  0  0  0  0  0  0  0  0  0
   -1.6812    0.8783    0.3699 C   0  0  0  0  0  0  0  0  0  0  0  0
   -2.0353    2.4266    0.0080 C   0  0  1  0  0  0  0  0  0  0  0  0
   -1.8537    2.8873    1.5682 C   0  0  0  0  0  0  0  0  0  0  0  0
   -0.4846    2.7450   -0.4069 C   0  0  0  0  0  0  0  0  0  0  0  0
   -0.2007    4.1402    0.4035 C   0  0  2  0  0  0  0  0  0  0  0  0
    0.2978    4.8977   -0.8074 O   0  0  0  0  0  0  0  0  0  0  0  0
   -0.7873    4.9906   -1.6640 C   0  0  0  0  0  0  0  0  0  0  0  0
    1.3452    3.5791    0.9218 C   0  0  2  0  0  0  0  0  0  0  0  0
    1.8280    4.9902    1.0683 O   0  0  0  0  0  0  0  0  0  0  0  0
    1.9357    3.2863   -0.6565 C   0  0  1  0  0  0  0  0  0  0  0  0
    3.1784    4.3431   -0.6290 C   0  0  0  0  0  0  0  0  0  0  0  0
    2.8829    2.1047   -0.1585 C   0  0  0  0  0  0  0  0  0  0  0  0
    2.6426    0.8510   -0.5046 C   0  0  0  0  0  0  0  0  0  0  0  0
    3.1561    0.2452   -1.7861 C   0  0  0  0  0  0  0  0  0  0  0  0
    3.1105    0.0570    0.8381 C   0  0  2  0  0  0  0  0  0  0  0  0
    4.5849    0.2022    0.4622 O   0  0  0  0  0  0  0  0  0  0  0  0
    5.3841   -0.9038    0.5732 C   0  0  0  0  0  0  0  0  0  0  0  0
    6.7874   -0.6531    0.7393 N   0  0  0  0  0  0  0  0  0  0  0  0
    5.0262   -1.6824   -0.3642 O   0  0  0  0  0  0  0  0  0  0  0  0
    2.8828   -1.5312    0.1849 C   0  0  1  0  0  0  0  0  0  0  0  0
    2.9688   -2.1395    1.5688 O   0  0  0  0  0  0  0  0  0  0  0  0
    2.7481   -3.4810    1.4741 C   0  0  0  0  0  0  0  0  0  0  0  0
    1.2838   -1.3363    0.2684 C   0  0  0  0  0  0  0  0  0  0  0  0
    0.5334   -2.1859    0.8591 C   0  0  0  0  0  0  0  0  0  0  0  0
   -0.3764   -3.0008    0.0991 C   0  0  0  0  0  0  0  0  0  0  0  0
   -0.5651   -3.0470   -1.2272 C   0  0  0  0  0  0  0  0  0  0  0  0
    0.4838   -3.6399   -2.1878 C   0  0  0  0  0  0  0  0  0  0  0  0
   -1.6557   -4.0723   -1.3440 C   0  0  0  0  0  0  0  0  0  0  0  0
   -1.7837   -4.8308   -2.3578 O   0  0  0  0  0  0  0  0  0  0  0  0
   -2.8647   -3.7607   -0.6627 N   0  0  0  0  0  0  0  0  0  0  0  0
   -2.9485   -2.3770   -0.2534 C   0  0  0  0  0  0  0  0  0  0  0  0
   -4.0075   -2.3348    0.5874 C   0  0  0  0  0  0  0  0  0  0  0  0
   -4.6758   -1.0996    0.9045 C   0  0  0  0  0  0  0  0  0  0  0  0
   -5.7687   -1.0288    1.5272 O   0  0  0  0  0  0  0  0  0  0  0  0
   -2.5092   -1.2176   -0.9895 C   0  0  0  0  0  0  0  0  0  0  0  0
   -2.6221   -0.9363   -2.2409 O   0  0  0  0  0  0  0  0  0  0  0  0
  1  2  1  0
  2  3  1  0
  3  4  2  0
  4  5  1  0
  5  6  1  0
  6  7  1  1
  6  8  1  0
  8  9  1  0
  9 10  1  6
 10 11  1  0
  9 12  1  0
 12 13  1  6
 12 14  1  0
 14 15  1  1
 14 16  1  0
 16 17  2  0
 17 18  1  0
 17 19  1  0
 19 20  1  6
 20 21  1  0
 21 22  1  0
 21 23  2  0
 19 24  1  0
 24 25  1  1
 25 26  1  0
 24 27  1  0
 27 28  2  0
 28 29  1  0
 29 30  2  0
 30 31  1  0
 30 32  1  0
 32 33  2  0
 32 34  1  0
 34 35  1  0
 35 36  2  0
 36 37  1  0
 37 38  2  0
 35 39  1  0
 39 40  2  0
 37  3  1  0
 39  4  1  0
M  END
>  <zinc_id>  (1) 
ZINC000037246120

>  <smiles>  (1) 
COC1=C2C[C@@H](C)C[C@H](OC)[C@H](O)[C@@H](C)/C=C(\C)[C@H](OC(N)=O)[C@@H](OC)/C=C/C=C(\C)C(=O)NC(=CC1=O)C2=O

$$$$
