REMARK SMILES O=C(Nc1nc2cccc(-c3ccc(CN4CCS(=O)(=O)CC4)cc3)n2n1)C1CC1
REMARK SMILES IDX 4 1 5 2 6 3 7 4 8 5 9 6 10 7 26 8 27 9 3 10 1 11 2 12 28 13
REMARK SMILES IDX 29 14 30 15 11 16 12 17 25 18 13 19 24 20 14 21 15 22 16 23
REMARK SMILES IDX 17 24 23 25 18 26 22 27 19 28 20 29 21 30
REMARK H PARENT
REMARK Flexibility Score: inf
ROOT
ATOM      1  C   UNL     1       3.434   0.329   0.567  1.00  0.00     0.249 A 
ATOM      2  N   UNL     1       4.073  -0.783   0.998  1.00  0.00    -0.192 NA
ATOM      3  C   UNL     1       3.367  -1.882   0.691  1.00  0.00     0.158 A 
ATOM      4  C   UNL     1       3.654  -3.235   0.558  1.00  0.00    -0.017 A 
ATOM      5  C   UNL     1       2.894  -3.973  -0.340  1.00  0.00    -0.056 A 
ATOM      6  C   UNL     1       1.562  -3.593  -0.448  1.00  0.00    -0.036 A 
ATOM      7  C   UNL     1       1.198  -2.347   0.045  1.00  0.00     0.074 A 
ATOM      8  N   UNL     1       2.128  -1.424   0.390  1.00  0.00    -0.211 N 
ATOM      9  N   UNL     1       2.166  -0.093   0.337  1.00  0.00    -0.127 NA
ENDROOT
BRANCH   1  10
ATOM     10  N   UNL     1       4.004   1.508  -0.013  1.00  0.00    -0.293 N 
ATOM     11  O   UNL     1       5.522   1.883   1.653  1.00  0.00    -0.274 OA
ATOM     12  C   UNL     1       5.267   1.968   0.419  1.00  0.00     0.229 C 
BRANCH  12  13
ATOM     13  C   UNL     1       6.232   2.663  -0.489  1.00  0.00     0.038 C 
ATOM     14  C   UNL     1       7.065   1.624  -1.289  1.00  0.00    -0.041 C 
ATOM     15  C   UNL     1       7.720   2.372  -0.197  1.00  0.00    -0.041 C 
ENDBRANCH  12  13
ENDBRANCH   1  10
BRANCH   7  16
ATOM     16  C   UNL     1      -0.212  -1.943   0.020  1.00  0.00     0.000 A 
ATOM     17  C   UNL     1      -0.857  -1.591  -1.155  1.00  0.00    -0.052 A 
ATOM     18  C   UNL     1      -0.968  -1.832   1.180  1.00  0.00    -0.052 A 
ATOM     19  C   UNL     1      -1.938  -0.731  -1.113  1.00  0.00    -0.057 A 
ATOM     20  C   UNL     1      -2.002  -0.913   1.258  1.00  0.00    -0.057 A 
ATOM     21  C   UNL     1      -2.369  -0.237   0.112  1.00  0.00    -0.034 A 
BRANCH  21  22
ATOM     22  C   UNL     1      -3.249   0.973   0.145  1.00  0.00     0.023 C 
BRANCH  22  23
ATOM     23  N   UNL     1      -4.363   0.709  -0.718  1.00  0.00    -0.297 NA
ATOM     24  C   UNL     1      -5.327  -0.206  -0.180  1.00  0.00     0.013 C 
ATOM     25  C   UNL     1      -4.917   1.863  -1.355  1.00  0.00     0.013 C 
ATOM     26  C   UNL     1      -6.044   0.330   1.043  1.00  0.00     0.063 C 
ATOM     27  C   UNL     1      -5.745   2.735  -0.459  1.00  0.00     0.063 C 
ATOM     28  S   UNL     1      -6.910   1.802   0.515  1.00  0.00     0.152 S 
ATOM     29  O   UNL     1      -7.290   2.655   1.681  1.00  0.00    -0.229 OA
ATOM     30  O   UNL     1      -8.096   1.370  -0.288  1.00  0.00    -0.229 OA
ENDBRANCH  22  23
ENDBRANCH  21  22
ENDBRANCH   7  16
TORSDOF 5

