REMARK SMILES O=C1CCc2ccc(OCCCCN3CCN(c4cccc(Cl)c4Cl)CC3)cc2N1
REMARK SMILES IDX 11 1 10 2 9 3 8 4 1 5 2 6 3 7 30 8 4 9 29 10 5 11 28 12 6 13
REMARK SMILES IDX 7 14 12 15 13 16 14 17 15 18 27 19 16 20 26 21 17 22 18 23
REMARK SMILES IDX 19 24 24 25 20 26 22 27 25 28 21 29 23 30
REMARK H PARENT
REMARK Flexibility Score: inf
ROOT
ATOM      1  C   UNL     1      -1.369  -0.722  -1.239  1.00  0.00    -0.018 C 
ENDROOT
BRANCH   1   2
ATOM      2  C   UNL     1      -2.032  -2.050  -0.994  1.00  0.00     0.088 C 
BRANCH   2   3
ATOM      3  O   UNL     1      -2.745  -1.976   0.219  1.00  0.00    -0.494 OA
BRANCH   3   4
ATOM      4  C   UNL     1      -4.045  -1.481   0.313  1.00  0.00     0.121 A 
ATOM      5  O   UNL     1      -7.670   2.949  -0.649  1.00  0.00    -0.275 OA
ATOM      6  C   UNL     1      -7.199   2.124   0.186  1.00  0.00     0.224 C 
ATOM      7  C   UNL     1      -8.117   1.349   1.056  1.00  0.00     0.031 C 
ATOM      8  N   UNL     1      -5.818   1.770   0.229  1.00  0.00    -0.326 N 
ATOM      9  C   UNL     1      -7.941  -0.137   0.897  1.00  0.00    -0.017 C 
ATOM     10  C   UNL     1      -5.526   0.401   0.536  1.00  0.00     0.048 A 
ATOM     11  C   UNL     1      -6.579  -0.495   0.400  1.00  0.00    -0.024 A 
ATOM     12  C   UNL     1      -4.261  -0.121   0.496  1.00  0.00     0.004 A 
ATOM     13  C   UNL     1      -6.390  -1.796  -0.035  1.00  0.00    -0.053 A 
ATOM     14  C   UNL     1      -5.092  -2.281  -0.117  1.00  0.00    -0.020 A 
ENDBRANCH   3   4
ENDBRANCH   2   3
ENDBRANCH   1   2
BRANCH   1  15
ATOM     15  C   UNL     1      -0.132  -0.616  -0.373  1.00  0.00    -0.037 C 
BRANCH  15  16
ATOM     16  C   UNL     1       1.047  -0.366  -1.272  1.00  0.00    -0.002 C 
BRANCH  16  17
ATOM     17  N   UNL     1       1.873   0.691  -0.697  1.00  0.00    -0.300 NA
ATOM     18  C   UNL     1       3.045   0.907  -1.517  1.00  0.00     0.016 C 
ATOM     19  C   UNL     1       2.211   0.412   0.676  1.00  0.00     0.016 C 
ATOM     20  C   UNL     1       3.896  -0.341  -1.546  1.00  0.00     0.031 C 
ATOM     21  C   UNL     1       3.237  -0.676   0.831  1.00  0.00     0.031 C 
ATOM     22  N   UNL     1       4.270  -0.638  -0.172  1.00  0.00    -0.368 N 
BRANCH  22  23
ATOM     23  C   UNL     1       5.652  -0.519   0.166  1.00  0.00     0.057 A 
ATOM     24  C   UNL     1       6.574  -1.515  -0.106  1.00  0.00    -0.037 A 
ATOM     25  C   UNL     1       6.142   0.765   0.371  1.00  0.00     0.083 A 
ATOM     26  C   UNL     1       7.944  -1.304  -0.018  1.00  0.00    -0.059 A 
ATOM     27  C   UNL     1       7.481   1.054   0.137  1.00  0.00     0.061 A 
ATOM     28  Cl  UNL     1       5.141   1.874   1.300  1.00  0.00    -0.080 Cl
ATOM     29  C   UNL     1       8.389   0.007   0.073  1.00  0.00    -0.042 A 
ATOM     30  Cl  UNL     1       8.014   2.730   0.212  1.00  0.00    -0.083 Cl
ENDBRANCH  22  23
ENDBRANCH  16  17
ENDBRANCH  15  16
ENDBRANCH   1  15
TORSDOF 7

