REMARK SMILES Cc1cccc(Oc2nc3c(C)cccn3c(=O)c2/C=C(\C#N)c2nc3ccccc3s2)c1
REMARK SMILES IDX 8 1 9 2 10 3 11 4 12 5 13 6 14 7 15 8 16 9 17 10 18 11 19 12
REMARK SMILES IDX 7 13 6 14 1 15 2 16 3 17 33 18 4 19 5 20 20 21 21 22 22 23
REMARK SMILES IDX 23 24 24 25 25 26 32 27 26 28 31 29 27 30 30 31 28 32 29 33
REMARK H PARENT
REMARK Flexibility Score: inf
ROOT
ATOM      1  C   UNL     1      -1.669  -0.367   0.524  1.00  0.00     0.234 A 
ATOM      2  N   UNL     1      -2.764  -1.124   0.459  1.00  0.00    -0.194 NA
ATOM      3  C   UNL     1      -2.777  -2.209  -0.351  1.00  0.00     0.146 A 
ATOM      4  C   UNL     1      -3.967  -2.899  -0.503  1.00  0.00    -0.007 A 
ATOM      5  C   UNL     1      -4.949  -2.895   0.614  1.00  0.00    -0.036 C 
ATOM      6  C   UNL     1      -4.088  -3.756  -1.577  1.00  0.00    -0.054 A 
ATOM      7  C   UNL     1      -2.943  -4.282  -2.160  1.00  0.00    -0.045 A 
ATOM      8  C   UNL     1      -1.745  -3.641  -1.875  1.00  0.00     0.014 A 
ATOM      9  N   UNL     1      -1.740  -2.492  -1.174  1.00  0.00    -0.267 N 
ATOM     10  C   UNL     1      -0.581  -1.796  -1.080  1.00  0.00     0.269 A 
ATOM     11  O   UNL     1       0.471  -2.303  -1.573  1.00  0.00    -0.268 OA
ATOM     12  C   UNL     1      -0.536  -0.824  -0.098  1.00  0.00     0.104 A 
ENDROOT
BRANCH   1  13
ATOM     13  O   UNL     1      -1.521   0.716   1.387  1.00  0.00    -0.438 OA
BRANCH  13  14
ATOM     14  C   UNL     1      -2.360   1.819   1.200  1.00  0.00     0.129 A 
ATOM     15  C   UNL     1      -2.611   5.500   1.986  1.00  0.00    -0.040 C 
ATOM     16  C   UNL     1      -2.943   4.057   1.838  1.00  0.00    -0.047 A 
ATOM     17  C   UNL     1      -4.293   3.729   1.847  1.00  0.00    -0.059 A 
ATOM     18  C   UNL     1      -1.994   3.077   1.660  1.00  0.00    -0.016 A 
ATOM     19  C   UNL     1      -4.680   2.418   1.595  1.00  0.00    -0.058 A 
ATOM     20  C   UNL     1      -3.719   1.598   1.017  1.00  0.00    -0.019 A 
ENDBRANCH  13  14
ENDBRANCH   1  13
BRANCH  12  21
ATOM     21  C   UNL     1       0.771  -0.298   0.266  1.00  0.00    -0.023 C 
ATOM     22  C   UNL     1       1.418   0.488  -0.565  1.00  0.00     0.089 C 
BRANCH  22  23
ATOM     23  C   UNL     1       0.786   1.102  -1.694  1.00  0.00     0.102 C 
ATOM     24  N   UNL     1       0.225   1.274  -2.696  1.00  0.00    -0.192 NA
ENDBRANCH  22  23
BRANCH  22  25
ATOM     25  C   UNL     1       2.881   0.513  -0.427  1.00  0.00     0.135 A 
ATOM     26  N   UNL     1       3.608   0.421   0.715  1.00  0.00    -0.235 NA
ATOM     27  S   UNL     1       4.075   1.210  -1.451  1.00  0.00    -0.113 S 
ATOM     28  C   UNL     1       4.871   0.030   0.459  1.00  0.00     0.082 A 
ATOM     29  C   UNL     1       5.458   0.855  -0.494  1.00  0.00     0.055 A 
ATOM     30  C   UNL     1       5.733  -0.570   1.371  1.00  0.00    -0.035 A 
ATOM     31  C   UNL     1       6.837   1.010  -0.570  1.00  0.00    -0.043 A 
ATOM     32  C   UNL     1       7.067  -0.653   1.079  1.00  0.00    -0.060 A 
ATOM     33  C   UNL     1       7.679   0.294   0.273  1.00  0.00    -0.061 A 
ENDBRANCH  22  25
ENDBRANCH  12  21
TORSDOF 5

