
     RDKit          3D

 32 34  0  0  0  0  0  0  0  0999 V2000
   -6.6212   -0.8401   -0.8120 C   0  0  0  0  0  0  0  0  0  0  0  0
   -6.0171   -1.1812   -0.7340 C   0  0  0  0  0  0  0  0  0  0  0  0
   -4.7913   -0.8100    0.0905 C   0  0  0  0  0  0  0  0  0  0  0  0
   -3.8856    0.0648   -1.0172 C   0  0  2  0  0  0  0  0  0  0  0  0
   -2.7331    0.3328    0.0712 N   0  0  0  0  0  0  0  0  0  0  0  0
   -1.9834   -0.8584    0.3468 C   0  0  0  0  0  0  0  0  0  0  0  0
   -0.9112   -1.0818   -0.4419 N   0  0  0  0  0  0  0  0  0  0  0  0
    0.0267   -1.9784   -0.1188 C   0  0  0  0  0  0  0  0  0  0  0  0
    1.3774   -1.8272   -0.6729 C   0  0  0  0  0  0  0  0  0  0  0  0
    2.3733   -2.7292   -0.3247 C   0  0  0  0  0  0  0  0  0  0  0  0
    3.6801   -2.3252   -0.0753 C   0  0  0  0  0  0  0  0  0  0  0  0
    3.9957   -0.9789   -0.0588 C   0  0  0  0  0  0  0  0  0  0  0  0
    4.8238   -0.3909    0.9464 N   0  0  0  0  0  0  0  0  0  0  0  0
    5.9477    0.3415    0.4854 C   0  0  0  0  0  0  0  0  0  0  0  0
    6.4655   -0.0370   -0.6062 O   0  0  0  0  0  0  0  0  0  0  0  0
    6.7108    1.0737    1.4182 N   0  0  0  0  0  0  0  0  0  0  0  0
    7.9058    1.7527    0.9236 C   0  0  0  0  0  0  0  0  0  0  0  0
    8.3351    1.1371   -0.4034 C   0  0  0  0  0  0  0  0  0  0  0  0
    3.1378   -0.1820   -0.8101 C   0  0  0  0  0  0  0  0  0  0  0  0
    3.5965    1.0911   -1.1530 O   0  0  0  0  0  0  0  0  0  0  0  0
    3.6810    1.4760   -2.5249 C   0  0  0  0  0  0  0  0  0  0  0  0
    1.8532   -0.6050   -1.1333 C   0  0  0  0  0  0  0  0  0  0  0  0
   -0.2278   -2.7360    0.9752 N   0  0  0  0  0  0  0  0  0  0  0  0
   -0.9948   -2.2763    1.9941 C   0  0  0  0  0  0  0  0  0  0  0  0
   -2.0035   -1.3988    1.6152 C   0  0  0  0  0  0  0  0  0  0  0  0
   -2.8112   -0.8101    2.7198 C   0  0  0  0  0  0  0  0  0  0  0  0
   -4.6893    1.4436   -0.6569 C   0  0  0  0  0  0  0  0  0  0  0  0
   -5.2433    2.0875   -1.7277 C   0  0  0  0  0  0  0  0  0  0  0  0
   -5.6543    3.3955   -1.4810 C   0  0  0  0  0  0  0  0  0  0  0  0
   -5.3602    3.9226   -0.2272 C   0  0  0  0  0  0  0  0  0  0  0  0
   -5.2363    3.0878    0.8387 N   0  0  0  0  0  0  0  0  0  0  0  0
   -4.7467    1.8395    0.6218 C   0  0  0  0  0  0  0  0  0  0  0  0
  1  2  1  0
  2  3  1  0
  4  3  1  1
  4  5  1  0
  5  6  1  0
  6  7  2  0
  7  8  1  0
  8  9  1  0
  9 10  2  0
 10 11  1  0
 11 12  2  0
 12 13  1  0
 13 14  1  0
 14 15  2  0
 14 16  1  0
 16 17  1  0
 17 18  1  0
 12 19  1  0
 19 20  1  0
 20 21  1  0
 19 22  2  0
  8 23  2  0
 23 24  1  0
 24 25  2  0
 25 26  1  0
  4 27  1  0
 27 28  2  0
 28 29  1  0
 29 30  2  0
 30 31  1  0
 31 32  2  0
 25  6  1  0
 32 27  1  0
 22  9  1  0
M  END
>  <zinc_id>  (1) 
ZINC000043024000

>  <smiles>  (1) 
CCC[C@H](Nc1nc(-c2ccc(NC(=O)NCC)c(OC)c2)ncc1C)c1cccnc1

$$$$
