
     RDKit          3D

 27 30  0  0  0  0  0  0  0  0999 V2000
    7.8746   -1.2595    0.4624 C   0  0  0  0  0  0  0  0  0  0  0  0
    6.3817   -0.4249    0.9777 S   0  0  0  0  0  0  0  0  0  0  0  0
    6.4981    1.0810    0.9396 O   0  0  0  0  0  0  0  0  0  0  0  0
    4.9522   -1.0072    0.0903 C   0  0  0  0  0  0  0  0  0  0  0  0
    4.1070   -1.9748    0.6190 C   0  0  0  0  0  0  0  0  0  0  0  0
    2.7354   -1.8460    0.4397 C   0  0  0  0  0  0  0  0  0  0  0  0
    2.1972   -0.9045   -0.4289 C   0  0  0  0  0  0  0  0  0  0  0  0
    0.8699   -0.3392   -0.1868 C   0  0  0  0  0  0  0  0  0  0  0  0
    0.4138    0.9003   -0.4222 N   0  0  0  0  0  0  0  0  0  0  0  0
   -0.8819    0.9917   -0.0355 C   0  0  0  0  0  0  0  0  0  0  0  0
   -1.6881    2.1867    0.1851 C   0  0  0  0  0  0  0  0  0  0  0  0
   -1.0084    3.3667    0.4482 C   0  0  0  0  0  0  0  0  0  0  0  0
   -1.6082    4.5849    0.1611 C   0  0  0  0  0  0  0  0  0  0  0  0
   -2.9465    4.6563    0.0420 N   0  0  0  0  0  0  0  0  0  0  0  0
   -3.6282    3.5294   -0.2059 C   0  0  0  0  0  0  0  0  0  0  0  0
   -3.0151    2.2890   -0.1309 C   0  0  0  0  0  0  0  0  0  0  0  0
   -1.2213   -0.2690    0.4349 C   0  0  0  0  0  0  0  0  0  0  0  0
   -2.5782   -0.8258    0.4938 C   0  0  0  0  0  0  0  0  0  0  0  0
   -3.3244   -0.9823   -0.6680 C   0  0  0  0  0  0  0  0  0  0  0  0
   -4.5383   -1.6133   -0.6118 C   0  0  0  0  0  0  0  0  0  0  0  0
   -4.6227   -2.7433    0.1911 C   0  0  0  0  0  0  0  0  0  0  0  0
   -5.8146   -3.3649    0.2358 F   0  0  0  0  0  0  0  0  0  0  0  0
   -3.8381   -2.7164    1.3376 C   0  0  0  0  0  0  0  0  0  0  0  0
   -2.8435   -1.7578    1.4902 C   0  0  0  0  0  0  0  0  0  0  0  0
   -0.0465   -0.9244    0.5954 N   0  0  0  0  0  0  0  0  0  0  0  0
    3.1043   -0.2866   -1.2805 C   0  0  0  0  0  0  0  0  0  0  0  0
    4.4700   -0.3461   -1.0323 C   0  0  0  0  0  0  0  0  0  0  0  0
  1  2  1  0
  2  3  2  0
  2  4  1  0
  4  5  2  0
  5  6  1  0
  6  7  2  0
  7  8  1  0
  8  9  2  0
  9 10  1  0
 10 11  1  0
 11 12  2  0
 12 13  1  0
 13 14  2  0
 14 15  1  0
 15 16  2  0
 10 17  2  0
 17 18  1  0
 18 19  2  0
 19 20  1  0
 20 21  2  0
 21 22  1  0
 21 23  1  0
 23 24  2  0
 17 25  1  0
  7 26  1  0
 26 27  2  0
 27  4  1  0
 25  8  1  0
 16 11  1  0
 24 18  1  0
M  END
>  <zinc_id>  (1) 
ZINC000000598627

>  <smiles>  (1) 
CS(=O)c1ccc(-c2nc(-c3ccncc3)c(-c3ccc(F)cc3)[nH]2)cc1

$$$$
