REMARK SMILES OC[C@H]1O[C@@H](Oc2cc(O)cc(/C=C/c3ccc(O)cc3)c2)[C@H](O)[C@@H](O)[C@@H]1O
REMARK SMILES IDX 7 1 8 2 9 3 10 4 11 5 12 6 22 7 6 8 5 9 3 10 4 11 27 12
REMARK SMILES IDX 25 13 28 14 23 15 26 16 24 17 2 18 1 19 13 20 14 21 15 22
REMARK SMILES IDX 16 23 21 24 17 25 20 26 18 27 19 28
REMARK H PARENT
REMARK Flexibility Score: inf
ROOT
ATOM      1  C   UNL     1      -1.074  -0.444  -0.082  1.00  0.00     0.127 A 
ATOM      2  C   UNL     1      -0.656  -1.624   0.531  1.00  0.00     0.022 A 
ATOM      3  C   UNL     1       0.665  -1.964   0.729  1.00  0.00     0.119 A 
ATOM      4  O   UNL     1       1.109  -3.155   1.252  1.00  0.00    -0.508 OA
ATOM      5  C   UNL     1       1.644  -1.129   0.214  1.00  0.00    -0.013 A 
ATOM      6  C   UNL     1       1.285   0.207   0.059  1.00  0.00    -0.018 A 
ATOM      7  C   UNL     1      -0.047   0.502  -0.136  1.00  0.00    -0.012 A 
ENDROOT
BRANCH   1   8
ATOM      8  O   UNL     1      -1.854  -0.542  -1.187  1.00  0.00    -0.462 OA
BRANCH   8   9
ATOM      9  C   UNL     1      -3.415  -0.421  -1.092  1.00  0.00     0.229 C 
ATOM     10  C   UNL     1      -4.906   0.800  -0.156  1.00  0.00     0.113 C 
ATOM     11  O   UNL     1      -3.399   0.591   0.103  1.00  0.00    -0.332 OA
ATOM     12  C   UNL     1      -5.361  -0.397   1.030  1.00  0.00     0.111 C 
ATOM     13  C   UNL     1      -5.263  -1.652  -0.158  1.00  0.00     0.115 C 
ATOM     14  O   UNL     1      -6.824  -0.197   0.713  1.00  0.00    -0.387 OA
ATOM     15  C   UNL     1      -3.550  -1.774   0.033  1.00  0.00     0.145 C 
ATOM     16  O   UNL     1      -5.512  -2.712   0.898  1.00  0.00    -0.387 OA
ATOM     17  O   UNL     1      -3.479  -2.778  -1.086  1.00  0.00    -0.384 OA
BRANCH  10  18
ATOM     18  C   UNL     1      -4.996   2.014   0.978  1.00  0.00     0.072 C 
ATOM     19  O   UNL     1      -5.742   2.805   0.382  1.00  0.00    -0.394 OA
ENDBRANCH  10  18
ENDBRANCH   8   9
ENDBRANCH   1   8
BRANCH   6  20
ATOM     20  C   UNL     1       2.383   1.121  -0.289  1.00  0.00    -0.054 C 
ATOM     21  C   UNL     1       3.416   1.365   0.473  1.00  0.00    -0.054 C 
BRANCH  21  22
ATOM     22  C   UNL     1       4.803   1.407   0.064  1.00  0.00    -0.025 A 
ATOM     23  C   UNL     1       5.707   1.390   1.124  1.00  0.00    -0.051 A 
ATOM     24  C   UNL     1       5.276   0.722  -1.053  1.00  0.00    -0.051 A 
ATOM     25  C   UNL     1       7.067   1.401   0.837  1.00  0.00    -0.020 A 
ATOM     26  C   UNL     1       6.607   0.894  -1.411  1.00  0.00    -0.020 A 
ATOM     27  C   UNL     1       7.481   1.452  -0.487  1.00  0.00     0.115 A 
ATOM     28  O   UNL     1       8.634   2.116  -0.894  1.00  0.00    -0.508 OA
ENDBRANCH  21  22
ENDBRANCH   6  20
TORSDOF 5

