REMARK SMILES CC[C@H](C)[C@@H]1NC(=O)[C@H](Cc2ccc(O)cc2)NC(=O)[C@@H](N)CSSC[C@@H](C(=O)N2CCC[C@H]2C(=O)N[C@@H](CC(C)C)C(=O)NCC(N)=O)NC(=O)[C@H](CC(N)=O)NC(=O)[C@H](CCC(N)=O)NC1=O
REMARK SMILES IDX 50 1 51 2 52 3 53 4 58 5 59 6 60 7 61 8 67 9 68 10 69 11
REMARK SMILES IDX 5 12 3 13 4 14 2 15 1 16 6 17 7 18 8 19 9 20 10 21 11 22
REMARK SMILES IDX 12 23 17 24 13 25 16 26 14 27 15 28 18 29 19 30 20 31 62 33
REMARK SMILES IDX 63 34 64 35 65 36 66 37 54 38 55 39 56 40 57 41 27 42 26 43
REMARK SMILES IDX 25 44 24 45 23 46 21 47 22 48 28 50 29 51 30 52 31 53 34 54
REMARK SMILES IDX 32 55 33 56 35 57 36 58 37 59 38 60 39 61 40 62 41 63 42 64
REMARK SMILES IDX 43 65 44 66 45 67 46 68 47 69 48 70 49 71
REMARK H PARENT
REMARK Flexibility Score: 60.00
ROOT
ATOM      1  N   UNL     1       1.212  -0.573  -0.849  1.00  0.00    -0.342 N 
ATOM      2  C   UNL     1       0.021   0.025  -0.306  1.00  0.00     0.243 C 
ATOM      3  O   UNL     1      -1.055  -0.430  -0.796  1.00  0.00    -0.273 OA
ENDROOT
BRANCH   2   4
ATOM      4  C   UNL     1       0.245   1.609  -0.512  1.00  0.00     0.116 C 
BRANCH   4   5
ATOM      5  N   UNL     1      -0.890   2.000   0.505  1.00  0.00    -0.342 N 
ATOM      6  C   UNL     1      -1.547   3.091  -0.178  1.00  0.00     0.243 C 
ATOM      7  O   UNL     1      -1.988   3.970   0.610  1.00  0.00    -0.273 OA
BRANCH   6   8
ATOM      8  C   UNL     1      -2.647   2.247  -1.001  1.00  0.00     0.108 C 
BRANCH   8   9
ATOM      9  N   UNL     1      -3.509   3.514  -1.351  1.00  0.00    -0.342 N 
ATOM     10  C   UNL     1      -4.481   3.788  -0.326  1.00  0.00     0.243 C 
ATOM     11  O   UNL     1      -4.815   4.949  -0.430  1.00  0.00    -0.273 OA
BRANCH  10  12
ATOM     12  C   UNL     1      -5.484   2.543  -0.324  1.00  0.00     0.110 C 
BRANCH  12  13
ATOM     13  C   UNL     1      -6.729   3.196   0.656  1.00  0.00    -0.015 C 
ATOM     14  C   UNL     1      -5.801   4.068   1.659  1.00  0.00    -0.060 C 
BRANCH  13  15
ATOM     15  C   UNL     1      -7.080   4.406  -0.356  1.00  0.00    -0.051 C 
ATOM     16  C   UNL     1      -7.904   4.929  -0.296  1.00  0.00    -0.065 C 
ENDBRANCH  13  15
ENDBRANCH  12  13
BRANCH  12  17
ATOM     17  N   UNL     1      -4.801   1.904   0.933  1.00  0.00    -0.342 N 
ATOM     18  C   UNL     1      -5.191   0.586   1.294  1.00  0.00     0.243 C 
ATOM     19  O   UNL     1      -4.589   0.188   2.323  1.00  0.00    -0.273 OA
BRANCH  18  20
ATOM     20  C   UNL     1      -5.188  -0.388   0.009  1.00  0.00     0.112 C 
BRANCH  20  21
ATOM     21  C   UNL     1      -6.831  -0.401  -0.045  1.00  0.00     0.002 C 
BRANCH  21  22
ATOM     22  C   UNL     1      -7.271  -1.764  -0.323  1.00  0.00    -0.045 A 
ATOM     23  C   UNL     1      -7.779  -2.209  -1.533  1.00  0.00    -0.055 A 
ATOM     24  C   UNL     1      -7.679  -2.505   0.782  1.00  0.00    -0.055 A 
ATOM     25  C   UNL     1      -7.881  -3.585  -1.690  1.00  0.00    -0.020 A 
ATOM     26  C   UNL     1      -7.918  -3.856   0.700  1.00  0.00    -0.020 A 
ATOM     27  C   UNL     1      -7.921  -4.409  -0.572  1.00  0.00     0.115 A 
ATOM     28  O   UNL     1      -7.726  -5.783  -0.700  1.00  0.00    -0.508 OA
ENDBRANCH  21  22
ENDBRANCH  20  21
BRANCH  20  29
ATOM     29  N   UNL     1      -5.124  -1.713   0.852  1.00  0.00    -0.343 N 
ATOM     30  C   UNL     1      -3.844  -2.371   0.886  1.00  0.00     0.238 CG0
ATOM     31  O   UNL     1      -4.016  -3.588   1.210  1.00  0.00    -0.273 OA
ATOM     32  G   UNL     1      -2.967  -2.141  -0.449  1.00  0.00     0.000 G0
ENDBRANCH  20  29
ENDBRANCH  18  20
ENDBRANCH  12  17
ENDBRANCH  10  12
ENDBRANCH   8   9
BRANCH   8  33
ATOM     33  C   UNL     1      -1.880   2.396  -2.452  1.00  0.00    -0.015 C 
BRANCH  33  34
ATOM     34  C   UNL     1      -2.869   1.529  -3.237  1.00  0.00     0.029 C 
BRANCH  34  35
ATOM     35  C   UNL     1      -2.928   0.141  -2.720  1.00  0.00     0.217 C 
ATOM     36  N   UNL     1      -2.210  -0.889  -3.413  1.00  0.00    -0.370 N 
ATOM     37  O   UNL     1      -3.742  -0.267  -1.859  1.00  0.00    -0.275 OA
ENDBRANCH  34  35
ENDBRANCH  33  34
ENDBRANCH   8  33
ENDBRANCH   6   8
ENDBRANCH   4   5
BRANCH   4  38
ATOM     38  C   UNL     1       1.409   1.665   0.643  1.00  0.00     0.056 C 
BRANCH  38  39
ATOM     39  C   UNL     1       1.131   2.701   1.601  1.00  0.00     0.220 C 
ATOM     40  N   UNL     1       1.486   4.049   1.302  1.00  0.00    -0.370 N 
ATOM     41  O   UNL     1       1.232   2.385   2.828  1.00  0.00    -0.275 OA
ENDBRANCH  38  39
ENDBRANCH   4  38
ENDBRANCH   2   4
BRANCH   1  42
ATOM     42  C   UNL     1       2.262  -0.424   0.316  1.00  0.00     0.118 C 
BRANCH  42  43
ATOM     43  C   UNL     1       1.890  -1.932   0.881  1.00  0.00     0.033 C 
BRANCH  43  44
ATOM     44  S   UNL     1       0.329  -1.809   1.734  1.00  0.00    -0.091 SA
BRANCH  44  45
ATOM     45  S   UNL     1      -1.160  -3.178   1.449  1.00  0.00    -0.092 SA
BRANCH  45  46
ATOM     46  C   UNL     1      -1.887  -3.339  -0.141  1.00  0.00     0.028 C 
BRANCH  46  47
ATOM     47  C   UNL     1      -2.967  -2.141  -0.449  1.00  0.00     0.094 CG0
ATOM     48  N   UNL     1      -2.050  -1.059   0.240  1.00  0.00    -0.319 NA
ATOM     49  G   UNL     1      -3.844  -2.371   0.886  1.00  0.00     0.000 G0
ENDBRANCH  46  47
ENDBRANCH  45  46
ENDBRANCH  44  45
ENDBRANCH  43  44
ENDBRANCH  42  43
BRANCH  42  50
ATOM     50  C   UNL     1       3.480  -0.876  -0.644  1.00  0.00     0.246 C 
ATOM     51  O   UNL     1       3.396  -2.019  -1.150  1.00  0.00    -0.272 OA
BRANCH  50  52
ATOM     52  N   UNL     1       4.025   0.087  -1.472  1.00  0.00    -0.329 N 
ATOM     53  C   UNL     1       3.455   0.979  -2.481  1.00  0.00     0.021 C 
ATOM     54  C   UNL     1       5.339   0.929  -1.316  1.00  0.00     0.111 C 
ATOM     55  C   UNL     1       3.700   2.383  -1.925  1.00  0.00    -0.033 C 
ATOM     56  C   UNL     1       4.461   2.137  -0.621  1.00  0.00    -0.022 C 
BRANCH  54  57
ATOM     57  C   UNL     1       5.782   0.240   0.063  1.00  0.00     0.243 C 
ATOM     58  O   UNL     1       5.580   0.688   1.134  1.00  0.00    -0.273 OA
ATOM     59  N   UNL     1       6.603  -0.809  -0.231  1.00  0.00    -0.343 N 
BRANCH  59  60
ATOM     60  C   UNL     1       7.546  -1.415   0.865  1.00  0.00     0.108 C 
BRANCH  60  61
ATOM     61  C   UNL     1       8.618  -1.819  -0.321  1.00  0.00    -0.021 C 
BRANCH  61  62
ATOM     62  C   UNL     1       7.999  -3.022  -0.991  1.00  0.00    -0.045 C 
ATOM     63  C   UNL     1       8.401  -4.191  -0.097  1.00  0.00    -0.063 C 
ATOM     64  C   UNL     1       8.659  -3.169  -2.338  1.00  0.00    -0.063 C 
ENDBRANCH  61  62
ENDBRANCH  60  61
BRANCH  60  65
ATOM     65  C   UNL     1       8.266  -0.017   1.230  1.00  0.00     0.243 C 
ATOM     66  O   UNL     1       7.935   0.217   2.442  1.00  0.00    -0.273 OA
ATOM     67  N   UNL     1       9.666   0.076   1.104  1.00  0.00    -0.345 N 
BRANCH  67  68
ATOM     68  C   UNL     1      10.588   0.331   2.213  1.00  0.00     0.096 C 
BRANCH  68  69
ATOM     69  C   UNL     1      11.431  -0.907   2.278  1.00  0.00     0.236 C 
ATOM     70  N   UNL     1      12.405  -1.135   1.252  1.00  0.00    -0.368 N 
ATOM     71  O   UNL     1      10.829  -1.952   2.671  1.00  0.00    -0.273 OA
ENDBRANCH  68  69
ENDBRANCH  67  68
ENDBRANCH  60  65
ENDBRANCH  59  60
ENDBRANCH  54  57
ENDBRANCH  50  52
ENDBRANCH  42  50
ENDBRANCH   1  42
TORSDOF 18

