REMARK SMILES CC/C(=C(\c1ccc(O)cc1)c1ccc(OCCN(C)C)cc1)c1ccccc1
REMARK SMILES IDX 16 1 15 2 12 3 13 4 23 5 14 6 22 7 4 8 3 9 2 10 1 11 24 12
REMARK SMILES IDX 25 13 29 14 26 15 28 16 27 17 5 18 6 19 11 20 7 21 10 22
REMARK SMILES IDX 8 23 9 24 17 25 18 26 19 27 20 28 21 29
REMARK H PARENT
REMARK Flexibility Score: inf
ROOT
ATOM      1  O   UNL     1       3.515   1.269  -1.723  1.00  0.00    -0.492 OA
ENDROOT
BRANCH   1   2
ATOM      2  C   UNL     1       2.327   0.638  -2.111  1.00  0.00     0.119 A 
ATOM      3  C   UNL     1      -0.170  -0.291  -1.177  1.00  0.00    -0.017 A 
ATOM      4  C   UNL     1       0.873  -1.169  -1.452  1.00  0.00    -0.051 A 
ATOM      5  C   UNL     1      -0.059   0.948  -1.800  1.00  0.00    -0.051 A 
ATOM      6  C   UNL     1       2.139  -0.699  -1.783  1.00  0.00    -0.019 A 
ATOM      7  C   UNL     1       1.159   1.358  -2.330  1.00  0.00    -0.019 A 
BRANCH   3   8
ATOM      8  C   UNL     1      -1.022  -0.471   0.007  1.00  0.00    -0.007 C 
ATOM      9  C   UNL     1      -1.654   0.550   0.551  1.00  0.00    -0.033 C 
BRANCH   9  10
ATOM     10  C   UNL     1      -2.110   0.422   1.948  1.00  0.00    -0.030 C 
ATOM     11  C   UNL     1      -1.127   1.094   2.881  1.00  0.00    -0.061 C 
ENDBRANCH   9  10
BRANCH   9  12
ATOM     12  C   UNL     1      -2.122   1.608  -0.353  1.00  0.00    -0.022 A 
ATOM     13  C   UNL     1      -1.930   2.905   0.108  1.00  0.00    -0.055 A 
ATOM     14  C   UNL     1      -3.355   1.379  -0.952  1.00  0.00    -0.055 A 
ATOM     15  C   UNL     1      -2.394   3.908  -0.734  1.00  0.00    -0.062 A 
ATOM     16  C   UNL     1      -4.073   2.434  -1.463  1.00  0.00    -0.062 A 
ATOM     17  C   UNL     1      -3.441   3.662  -1.613  1.00  0.00    -0.062 A 
ENDBRANCH   9  12
BRANCH   8  18
ATOM     18  C   UNL     1      -1.141  -1.845   0.511  1.00  0.00    -0.017 A 
ATOM     19  C   UNL     1      -0.749  -2.225   1.766  1.00  0.00    -0.051 A 
ATOM     20  C   UNL     1      -2.077  -2.634  -0.148  1.00  0.00    -0.051 A 
ATOM     21  C   UNL     1      -1.396  -3.291   2.378  1.00  0.00    -0.020 A 
ATOM     22  C   UNL     1      -2.770  -3.647   0.497  1.00  0.00    -0.020 A 
ATOM     23  C   UNL     1      -2.572  -3.821   1.862  1.00  0.00     0.115 A 
ATOM     24  O   UNL     1      -3.624  -4.224   2.688  1.00  0.00    -0.508 OA
ENDBRANCH   8  18
ENDBRANCH   3   8
ENDBRANCH   1   2
BRANCH   1  25
ATOM     25  C   UNL     1       3.963   1.261  -0.383  1.00  0.00     0.101 C 
BRANCH  25  26
ATOM     26  C   UNL     1       5.445   1.050  -0.261  1.00  0.00     0.032 C 
BRANCH  26  27
ATOM     27  N   UNL     1       5.790  -0.100   0.553  1.00  0.00    -0.306 NA
ATOM     28  C   UNL     1       7.250  -0.140   0.604  1.00  0.00    -0.014 C 
ATOM     29  C   UNL     1       5.323   0.072   1.927  1.00  0.00    -0.014 C 
ENDBRANCH  26  27
ENDBRANCH  25  26
ENDBRANCH   1  25
TORSDOF 8

