REMARK SMILES CN1CCN(c2ccc(/C=C(\C#N)c3ccccc3Br)cc2)CC1
REMARK SMILES IDX 6 1 7 2 8 3 9 4 21 5 22 6 5 7 1 8 2 9 3 10 24 11 4 12 23 13
REMARK SMILES IDX 10 14 11 15 12 16 13 17 14 18 15 19 19 20 16 21 18 22 20 23
REMARK SMILES IDX 17 24
REMARK H PARENT
REMARK Flexibility Score: inf
ROOT
ATOM      1  C   UNL     1       2.387  -0.996  -0.480  1.00  0.00     0.037 A 
ATOM      2  C   UNL     1       1.857  -1.709  -1.548  1.00  0.00    -0.038 A 
ATOM      3  C   UNL     1       0.518  -2.086  -1.557  1.00  0.00    -0.053 A 
ATOM      4  C   UNL     1      -0.296  -1.852  -0.453  1.00  0.00    -0.024 A 
ATOM      5  C   UNL     1       0.375  -1.569   0.698  1.00  0.00    -0.053 A 
ATOM      6  C   UNL     1       1.660  -1.045   0.702  1.00  0.00    -0.038 A 
ENDROOT
BRANCH   1   7
ATOM      7  N   UNL     1       3.417  -0.040  -0.618  1.00  0.00    -0.369 N 
ATOM      8  C   UNL     1       5.625   2.421   1.063  1.00  0.00    -0.013 C 
ATOM      9  N   UNL     1       5.565   1.812  -0.240  1.00  0.00    -0.303 NA
ATOM     10  C   UNL     1       4.309   2.153  -0.857  1.00  0.00     0.016 C 
ATOM     11  C   UNL     1       5.782   0.391  -0.131  1.00  0.00     0.016 C 
ATOM     12  C   UNL     1       3.209   1.348  -0.213  1.00  0.00     0.031 C 
ATOM     13  C   UNL     1       4.789  -0.405  -0.952  1.00  0.00     0.031 C 
ENDBRANCH   1   7
BRANCH   4  14
ATOM     14  C   UNL     1      -1.691  -1.626  -0.730  1.00  0.00    -0.036 C 
ATOM     15  C   UNL     1      -2.480  -0.870  -0.005  1.00  0.00     0.061 C 
BRANCH  15  16
ATOM     16  C   UNL     1      -2.122  -0.720   1.387  1.00  0.00     0.100 C 
ATOM     17  N   UNL     1      -2.132  -0.976   2.512  1.00  0.00    -0.192 NA
ENDBRANCH  15  16
BRANCH  15  18
ATOM     18  C   UNL     1      -3.657  -0.172  -0.537  1.00  0.00     0.006 A 
ATOM     19  C   UNL     1      -4.926  -0.734  -0.469  1.00  0.00    -0.053 A 
ATOM     20  C   UNL     1      -3.609   1.209  -0.580  1.00  0.00     0.026 A 
ATOM     21  C   UNL     1      -6.018   0.059  -0.147  1.00  0.00    -0.062 A 
ATOM     22  C   UNL     1      -4.719   2.005  -0.327  1.00  0.00    -0.047 A 
ATOM     23  Br  UNL     1      -1.951   1.985  -1.127  1.00  0.00    -0.050 Br
ATOM     24  C   UNL     1      -5.892   1.416   0.124  1.00  0.00    -0.061 A 
ENDBRANCH  15  18
ENDBRANCH   4  14
TORSDOF 4

