REMARK SMILES CCCCCCCC/C=C\CCCCCCCC(=O)N[C@@H](CO)Cc1ccc(O)cc1
REMARK SMILES IDX 12 1 11 2 10 3 9 4 8 5 7 6 6 7 5 8 4 9 3 10 2 11 1 12 13 13
REMARK SMILES IDX 14 14 15 15 16 16 17 17 18 18 19 19 20 20 21 21 22 22 23 23
REMARK SMILES IDX 24 24 25 25 26 26 31 27 27 28 30 29 28 30 29 31
REMARK H PARENT
REMARK Flexibility Score: inf
ROOT
ATOM      1  C   UNL     1       2.410   0.747   1.016  1.00  0.00    -0.050 C 
ENDROOT
BRANCH   1   2
ATOM      2  C   UNL     1       2.817   0.692   2.473  1.00  0.00    -0.035 C 
BRANCH   2   3
ATOM      3  C   UNL     1       4.122   1.355   2.721  1.00  0.00    -0.089 C 
ATOM      4  C   UNL     1       5.292   0.798   2.390  1.00  0.00    -0.089 C 
BRANCH   4   5
ATOM      5  C   UNL     1       5.276  -0.597   1.876  1.00  0.00    -0.035 C 
BRANCH   5   6
ATOM      6  C   UNL     1       6.528  -0.957   1.128  1.00  0.00    -0.050 C 
BRANCH   6   7
ATOM      7  C   UNL     1       7.492   0.200   1.251  1.00  0.00    -0.053 C 
BRANCH   7   8
ATOM      8  C   UNL     1       7.510   0.970  -0.064  1.00  0.00    -0.053 C 
BRANCH   8   9
ATOM      9  C   UNL     1       8.938   0.873  -0.590  1.00  0.00    -0.053 C 
BRANCH   9  10
ATOM     10  C   UNL     1       8.925   0.274  -1.989  1.00  0.00    -0.054 C 
BRANCH  10  11
ATOM     11  C   UNL     1      10.362  -0.103  -2.309  1.00  0.00    -0.056 C 
ATOM     12  C   UNL     1      11.058  -0.311  -1.117  1.00  0.00    -0.065 C 
ENDBRANCH  10  11
ENDBRANCH   9  10
ENDBRANCH   8   9
ENDBRANCH   7   8
ENDBRANCH   6   7
ENDBRANCH   5   6
ENDBRANCH   4   5
ENDBRANCH   2   3
ENDBRANCH   1   2
BRANCH   1  13
ATOM     13  C   UNL     1       2.197  -0.620   0.421  1.00  0.00    -0.053 C 
BRANCH  13  14
ATOM     14  C   UNL     1       1.548  -1.589   1.364  1.00  0.00    -0.053 C 
BRANCH  14  15
ATOM     15  C   UNL     1       0.051  -1.423   1.295  1.00  0.00    -0.053 C 
BRANCH  15  16
ATOM     16  C   UNL     1      -0.224   0.058   1.080  1.00  0.00    -0.044 C 
BRANCH  16  17
ATOM     17  C   UNL     1      -1.504   0.383   1.790  1.00  0.00     0.026 C 
BRANCH  17  18
ATOM     18  C   UNL     1      -2.638   0.057   0.870  1.00  0.00     0.220 C 
ATOM     19  O   UNL     1      -2.984  -1.142   0.718  1.00  0.00    -0.275 OA
ATOM     20  N   UNL     1      -3.121   0.979  -0.116  1.00  0.00    -0.351 N 
BRANCH  20  21
ATOM     21  C   UNL     1      -4.717   0.989  -0.002  1.00  0.00     0.056 C 
BRANCH  21  22
ATOM     22  C   UNL     1      -4.880   1.961  -1.348  1.00  0.00     0.064 C 
ATOM     23  O   UNL     1      -4.062   1.413  -2.301  1.00  0.00    -0.394 OA
ENDBRANCH  21  22
BRANCH  21  24
ATOM     24  C   UNL     1      -4.846  -0.410  -0.906  1.00  0.00    -0.005 C 
BRANCH  24  25
ATOM     25  C   UNL     1      -6.306  -0.654  -0.996  1.00  0.00    -0.046 A 
ATOM     26  C   UNL     1      -6.912  -0.946  -2.213  1.00  0.00    -0.055 A 
ATOM     27  C   UNL     1      -7.196  -0.264  -0.001  1.00  0.00    -0.055 A 
ATOM     28  C   UNL     1      -8.148  -0.408  -2.555  1.00  0.00    -0.020 A 
ATOM     29  C   UNL     1      -8.516   0.060  -0.296  1.00  0.00    -0.020 A 
ATOM     30  C   UNL     1      -8.867   0.323  -1.616  1.00  0.00     0.115 A 
ATOM     31  O   UNL     1      -9.606   1.457  -1.972  1.00  0.00    -0.508 OA
ENDBRANCH  24  25
ENDBRANCH  21  24
ENDBRANCH  20  21
ENDBRANCH  17  18
ENDBRANCH  16  17
ENDBRANCH  15  16
ENDBRANCH  14  15
ENDBRANCH  13  14
ENDBRANCH   1  13
TORSDOF 19

