
     RDKit          3D

 25 24  0  0  0  0  0  0  0  0999 V2000
   -9.4052    0.2400    0.6066 C   0  0  0  0  0  0  0  0  0  0  0  0
   -7.9347   -0.0514    0.7556 C   0  0  0  0  0  0  0  0  0  0  0  0
   -7.6580   -0.3846    2.2069 C   0  0  0  0  0  0  0  0  0  0  0  0
   -6.7466    0.7037    2.7593 C   0  0  0  0  0  0  0  0  0  0  0  0
   -5.3623    0.4926    2.1993 C   0  0  0  0  0  0  0  0  0  0  0  0
   -5.2007   -0.9256    1.7831 C   0  0  0  0  0  0  0  0  0  0  0  0
   -4.3061   -1.2625    0.8453 C   0  0  0  0  0  0  0  0  0  0  0  0
   -3.7918   -0.1261    0.0115 C   0  0  0  0  0  0  0  0  0  0  0  0
   -2.8902    0.6813    0.8949 C   0  0  0  0  0  0  0  0  0  0  0  0
   -1.6517    0.2948    1.1338 C   0  0  0  0  0  0  0  0  0  0  0  0
   -1.2734   -1.0844    0.6810 C   0  0  0  0  0  0  0  0  0  0  0  0
    0.1552   -1.1042    0.2324 C   0  0  0  0  0  0  0  0  0  0  0  0
    0.5883    0.0547   -0.2808 C   0  0  0  0  0  0  0  0  0  0  0  0
   -0.2359    0.6129   -1.4025 C   0  0  0  0  0  0  0  0  0  0  0  0
    0.3653    0.0466   -2.6545 C   0  0  0  0  0  0  0  0  0  0  0  0
    1.6911   -0.0359   -2.7412 C   0  0  0  0  0  0  0  0  0  0  0  0
    2.5038    0.4849   -1.6263 C   0  0  0  0  0  0  0  0  0  0  0  0
    3.9726    0.6055   -2.0061 C   0  0  0  0  0  0  0  0  0  0  0  0
    4.5807   -0.7723   -1.8308 C   0  0  0  0  0  0  0  0  0  0  0  0
    5.4519   -0.7016   -0.6244 C   0  0  0  0  0  0  0  0  0  0  0  0
    4.8894   -0.6166    0.4988 O   0  0  0  0  0  0  0  0  0  0  0  0
    6.7134   -0.0473   -0.8024 N   0  0  0  0  0  0  0  0  0  0  0  0
    7.4918    0.3414    0.3589 C   0  0  0  0  0  0  0  0  0  0  0  0
    8.8991   -0.1785    0.1656 C   0  0  0  0  0  0  0  0  0  0  0  0
    9.1540   -0.4965   -1.1643 O   0  0  0  0  0  0  0  0  0  0  0  0
  1  2  1  0
  2  3  1  0
  3  4  1  0
  4  5  1  0
  5  6  1  0
  6  7  2  0
  7  8  1  0
  8  9  1  0
  9 10  2  0
 10 11  1  0
 11 12  1  0
 12 13  2  0
 13 14  1  0
 14 15  1  0
 15 16  2  0
 16 17  1  0
 17 18  1  0
 18 19  1  0
 19 20  1  0
 20 21  2  0
 20 22  1  0
 22 23  1  0
 23 24  1  0
 24 25  1  0
M  END
>  <zinc_id>  (1) 
ZINC000003809850

>  <smiles>  (1) 
CCCCC/C=C\C/C=C\C/C=C\C/C=C\CCCC(=O)NCCO

$$$$
