REMARK SMILES C=C[C@H]1CN2CC[C@H]1C[C@@H]2[C@H](O)c1ccnc2ccc(OC)cc12
REMARK SMILES IDX 11 1 12 2 10 3 3 4 4 5 8 6 5 7 7 8 9 9 6 10 2 11 1 12 13 13
REMARK SMILES IDX 14 14 24 15 15 16 17 17 23 18 16 19 18 20 20 21 19 22 21 23
REMARK SMILES IDX 22 24
REMARK H PARENT
REMARK Flexibility Score: inf
ROOT
ATOM      1  C   UNL     1       0.134  -1.049  -1.369  1.00  0.00     0.095 C 
ATOM      2  O   UNL     1       1.141  -0.494  -2.401  1.00  0.00    -0.387 OA
ENDROOT
BRANCH   1   3
ATOM      3  C   UNL     1       1.358  -1.579  -0.224  1.00  0.00     0.040 C 
ATOM      4  C   UNL     1       3.463   0.363   1.248  1.00  0.00    -0.008 C 
ATOM      5  C   UNL     1       1.943   0.625   0.714  1.00  0.00     0.005 C 
ATOM      6  C   UNL     1       3.776  -1.022   0.249  1.00  0.00    -0.031 C 
ATOM      7  N   UNL     1       1.118  -0.494   0.898  1.00  0.00    -0.297 NA
ATOM      8  C   UNL     1       2.947  -2.018   1.258  1.00  0.00    -0.037 C 
ATOM      9  C   UNL     1       2.610  -0.718  -0.855  1.00  0.00    -0.031 C 
ATOM     10  C   UNL     1       1.869  -1.238   1.919  1.00  0.00    -0.001 C 
BRANCH   4  11
ATOM     11  C   UNL     1       4.082   1.369   0.139  1.00  0.00    -0.087 C 
ATOM     12  C   UNL     1       4.023   1.379  -0.618  1.00  0.00    -0.103 C 
ENDBRANCH   4  11
ENDBRANCH   1   3
BRANCH   1  13
ATOM     13  C   UNL     1      -0.193   0.401  -0.683  1.00  0.00    -0.007 A 
ATOM     14  C   UNL     1      -0.114   1.494  -1.544  1.00  0.00    -0.037 A 
ATOM     15  C   UNL     1      -1.433   0.277  -0.053  1.00  0.00     0.010 A 
ATOM     16  C   UNL     1      -0.699   2.691  -1.147  1.00  0.00     0.028 A 
ATOM     17  C   UNL     1      -1.982   1.474   0.398  1.00  0.00     0.071 A 
ATOM     18  C   UNL     1      -2.276  -0.804  -0.166  1.00  0.00    -0.010 A 
ATOM     19  N   UNL     1      -1.423   2.655   0.000  1.00  0.00    -0.256 NA
ATOM     20  C   UNL     1      -3.243   1.407   0.950  1.00  0.00    -0.032 A 
ATOM     21  C   UNL     1      -3.645  -0.752   0.073  1.00  0.00     0.119 A 
ATOM     22  C   UNL     1      -4.143   0.381   0.674  1.00  0.00    -0.018 A 
BRANCH  21  23
ATOM     23  O   UNL     1      -4.441  -1.870   0.061  1.00  0.00    -0.497 OA
ATOM     24  C   UNL     1      -4.873  -2.478  -1.154  1.00  0.00     0.078 C 
ENDBRANCH  21  23
ENDBRANCH   1  13
TORSDOF 4

