
     RDKit          3D

 20 22  0  0  0  0  0  0  0  0999 V2000
   -3.9417    2.1751   -0.7896 N   0  0  0  0  0  0  0  0  0  0  0  0
   -3.3634    1.2041   -0.4529 C   0  0  0  0  0  0  0  0  0  0  0  0
   -3.9856    0.0083   -0.3210 N   0  0  0  0  0  0  0  0  0  0  0  0
   -3.3323   -1.1096    0.0774 C   0  0  0  0  0  0  0  0  0  0  0  0
   -4.0293   -2.2043    0.4946 F   0  0  0  0  0  0  0  0  0  0  0  0
   -1.9853   -1.1241    0.2165 N   0  0  0  0  0  0  0  0  0  0  0  0
   -1.3224    0.0539    0.1645 C   0  0  0  0  0  0  0  0  0  0  0  0
   -2.0357    1.2286   -0.0423 C   0  0  0  0  0  0  0  0  0  0  0  0
   -1.2450    2.1854    0.4920 N   0  0  0  0  0  0  0  0  0  0  0  0
   -0.0149    1.6545    0.7325 C   0  0  0  0  0  0  0  0  0  0  0  0
   -0.0509    0.4509    0.3372 N   0  0  0  0  0  0  0  0  0  0  0  0
    1.0015   -0.6521   -0.0145 C   0  0  2  0  0  0  0  0  0  0  0  0
    2.0586   -0.1360    0.9436 O   0  0  0  0  0  0  0  0  0  0  0  0
    2.8241   -1.2878    0.3368 C   0  0  2  0  0  0  0  0  0  0  0  0
    4.2166   -0.8356    1.0754 C   0  0  0  0  0  0  0  0  0  0  0  0
    5.2227   -1.3046    0.2226 O   0  0  0  0  0  0  0  0  0  0  0  0
    3.2499   -0.4042   -1.0532 C   0  0  1  0  0  0  0  0  0  0  0  0
    2.9815   -1.5835   -1.9393 O   0  0  0  0  0  0  0  0  0  0  0  0
    1.6973    0.2202   -1.3171 C   0  0  2  0  0  0  0  0  0  0  0  0
    2.0544    1.4609   -0.5555 O   0  0  0  0  0  0  0  0  0  0  0  0
  1  2  1  0
  2  3  2  0
  3  4  1  0
  4  5  1  0
  4  6  2  0
  6  7  1  0
  7  8  2  0
  8  9  1  0
  9 10  2  0
 10 11  1  0
 12 11  1  1
 12 13  1  0
 13 14  1  0
 14 15  1  1
 15 16  1  0
 14 17  1  0
 17 18  1  6
 17 19  1  0
 19 20  1  1
  8  2  1  0
 19 12  1  0
 11  7  1  0
M  END
>  <zinc_id>  (1) 
ZINC000004216238

>  <smiles>  (1) 
Nc1nc(F)nc2c1ncn2[C@@H]1O[C@H](CO)[C@@H](O)[C@@H]1O

$$$$
