REMARK SMILES Nc1nc(F)nc2c1ncn2[C@@H]1O[C@H](CO)[C@@H](O)[C@@H]1O
REMARK SMILES IDX 12 1 13 2 14 3 17 4 18 5 19 6 20 7 11 8 1 9 2 10 3 11 8 12
REMARK SMILES IDX 4 13 7 14 9 15 5 16 6 17 10 18 15 19 16 20
REMARK H PARENT
REMARK Flexibility Score: inf
ROOT
ATOM      1  C   UNL     1       1.002  -0.652  -0.015  1.00  0.00     0.165 C 
ATOM      2  O   UNL     1       2.059  -0.136   0.944  1.00  0.00    -0.347 OA
ATOM      3  C   UNL     1       2.824  -1.288   0.337  1.00  0.00     0.112 C 
ATOM      4  C   UNL     1       3.250  -0.404  -1.053  1.00  0.00     0.113 C 
ATOM      5  O   UNL     1       2.982  -1.583  -1.939  1.00  0.00    -0.387 OA
ATOM      6  C   UNL     1       1.697   0.220  -1.317  1.00  0.00     0.128 C 
ATOM      7  O   UNL     1       2.054   1.461  -0.555  1.00  0.00    -0.386 OA
ENDROOT
BRANCH   1   8
ATOM      8  N   UNL     1      -0.051   0.451   0.337  1.00  0.00    -0.285 N 
ATOM      9  N   UNL     1      -3.942   2.175  -0.790  1.00  0.00    -0.382 N 
ATOM     10  C   UNL     1      -3.363   1.204  -0.453  1.00  0.00     0.158 A 
ATOM     11  N   UNL     1      -3.986   0.008  -0.321  1.00  0.00    -0.183 NA
ATOM     12  C   UNL     1      -2.036   1.229  -0.042  1.00  0.00     0.150 A 
ATOM     13  C   UNL     1      -3.332  -1.110   0.077  1.00  0.00     0.312 A 
ATOM     14  C   UNL     1      -1.322   0.054   0.165  1.00  0.00     0.170 A 
ATOM     15  N   UNL     1      -1.245   2.185   0.492  1.00  0.00    -0.231 NA
ATOM     16  F   UNL     1      -4.029  -2.204   0.495  1.00  0.00    -0.161 F 
ATOM     17  N   UNL     1      -1.985  -1.124   0.216  1.00  0.00    -0.182 NA
ATOM     18  C   UNL     1      -0.015   1.655   0.733  1.00  0.00     0.099 A 
ENDBRANCH   1   8
BRANCH   3  19
ATOM     19  C   UNL     1       4.217  -0.836   1.075  1.00  0.00     0.072 C 
ATOM     20  O   UNL     1       5.223  -1.305   0.223  1.00  0.00    -0.394 OA
ENDBRANCH   3  19
TORSDOF 2

