
     RDKit          3D

 33 38  0  0  0  0  0  0  0  0999 V2000
   -0.0639   -1.1305    2.4700 N   0  0  0  0  0  0  0  0  0  0  0  0
   -1.2117   -0.6122    1.9322 C   0  0  0  0  0  0  0  0  0  0  0  0
   -2.3856   -0.4858    2.5635 N   0  0  0  0  0  0  0  0  0  0  0  0
   -3.3128    0.3816    2.0869 C   0  0  0  0  0  0  0  0  0  0  0  0
   -3.2341    0.9130    0.8414 N   0  0  0  0  0  0  0  0  0  0  0  0
   -2.2519    0.3922    0.0605 C   0  0  0  0  0  0  0  0  0  0  0  0
   -1.0807    0.0311    0.7170 C   0  0  0  0  0  0  0  0  0  0  0  0
   -0.0313    0.2886   -0.1587 C   0  0  0  0  0  0  0  0  0  0  0  0
    1.2855    0.6390    0.3726 C   0  0  0  0  0  0  0  0  0  0  0  0
    1.4202    1.7204    1.2385 C   0  0  0  0  0  0  0  0  0  0  0  0
    2.4771    1.8869    2.0857 C   0  0  0  0  0  0  0  0  0  0  0  0
    3.2969    0.7748    2.2425 C   0  0  0  0  0  0  0  0  0  0  0  0
    3.3328   -0.2015    1.2800 C   0  0  0  0  0  0  0  0  0  0  0  0
    4.2059   -1.2576    1.4118 O   0  0  0  0  0  0  0  0  0  0  0  0
    4.6496   -1.8913    0.2372 C   0  0  0  0  0  0  0  0  0  0  0  0
    5.6901   -1.0475   -0.4281 C   0  0  0  0  0  0  0  0  0  0  0  0
    6.9938   -1.4959   -0.3021 C   0  0  0  0  0  0  0  0  0  0  0  0
    7.9674   -0.7005   -0.8875 C   0  0  0  0  0  0  0  0  0  0  0  0
    7.7344    0.6598   -0.9304 C   0  0  0  0  0  0  0  0  0  0  0  0
    6.4439    1.1726   -0.9890 C   0  0  0  0  0  0  0  0  0  0  0  0
    5.4469    0.3075   -0.5541 C   0  0  0  0  0  0  0  0  0  0  0  0
    2.2560   -0.3533    0.4231 C   0  0  0  0  0  0  0  0  0  0  0  0
   -0.6657    0.5895   -1.3433 C   0  0  0  0  0  0  0  0  0  0  0  0
   -1.9972    0.2918   -1.2421 N   0  0  0  0  0  0  0  0  0  0  0  0
   -2.8964    0.9883   -2.3348 C   0  0  1  0  0  0  0  0  0  0  0  0
   -3.3190   -0.4186   -3.0548 C   0  0  0  0  0  0  0  0  0  0  0  0
   -4.1486   -0.7198   -1.6938 C   0  0  2  0  0  0  0  0  0  0  0  0
   -5.5840   -0.8746   -2.4613 C   0  0  0  0  0  0  0  0  0  0  0  0
   -6.6162   -0.8445   -1.5074 N   0  0  0  0  0  0  0  0  0  0  0  0
   -6.8604    0.3096   -0.7204 C   0  0  0  0  0  0  0  0  0  0  0  0
   -6.6517   -0.4883    0.5487 C   0  0  0  0  0  0  0  0  0  0  0  0
   -6.5703   -1.7012   -0.3659 C   0  0  0  0  0  0  0  0  0  0  0  0
   -4.3188    0.8843   -1.5379 C   0  0  0  0  0  0  0  0  0  0  0  0
  1  2  1  0
  2  3  2  0
  3  4  1  0
  4  5  2  0
  5  6  1  0
  6  7  2  0
  7  8  1  0
  8  9  1  0
  9 10  2  0
 10 11  1  0
 11 12  2  0
 12 13  1  0
 13 14  1  0
 14 15  1  0
 15 16  1  0
 16 17  2  0
 17 18  1  0
 18 19  2  0
 19 20  1  0
 20 21  2  0
 13 22  2  0
  8 23  2  0
 23 24  1  0
 25 24  1  1
 25 26  1  0
 26 27  1  0
 27 28  1  6
 28 29  1  0
 29 30  1  0
 30 31  1  0
 31 32  1  0
 27 33  1  0
  7  2  1  0
 22  9  1  0
 33 25  1  0
 24  6  1  0
 32 29  1  0
 21 16  1  0
M  END
>  <zinc_id>  (1) 
ZINC000100073728

>  <smiles>  (1) 
Nc1ncnc2c1c(-c1cccc(OCc3ccccc3)c1)cn2[C@@H]1C[C@@H](CN2CCC2)C1

$$$$
