REMARK SMILES COC(=O)C[C@](O)(CCCC(C)(C)O)C(=O)O[C@@H]1C(OC)=C[C@]23CCCN2CCc2cc4c(cc2[C@H]13)OCO4
REMARK SMILES IDX 6 1 7 2 5 3 3 4 4 5 2 6 1 7 8 8 9 9 10 10 11 11 12 12 13 13
REMARK SMILES IDX 14 14 15 15 16 16 17 17 18 18 19 19 36 20 22 21 23 22 24 23
REMARK SMILES IDX 27 24 25 25 26 26 20 27 21 28 35 29 30 30 34 31 31 32 33 33
REMARK SMILES IDX 32 34 37 35 39 36 38 37 29 38 28 40
REMARK H PARENT
REMARK Flexibility Score: 90.00
ROOT
ATOM      1  C   UNL     1       1.971  -0.403   0.257  1.00  0.00     0.172 C 
ATOM      2  O   UNL     1       1.341  -1.332   1.101  1.00  0.00    -0.378 OA
ENDROOT
BRANCH   1   3
ATOM      3  C   UNL     1       2.498   0.698   1.127  1.00  0.00     0.085 C 
BRANCH   3   4
ATOM      4  C   UNL     1       3.692   1.372   0.576  1.00  0.00     0.309 C 
ATOM      5  O   UNL     1       4.610   1.663   1.401  1.00  0.00    -0.252 OA
BRANCH   4   6
ATOM      6  O   UNL     1       3.571   2.267  -0.490  1.00  0.00    -0.469 OA
ATOM      7  C   UNL     1       4.508   3.316  -0.692  1.00  0.00     0.081 C 
ENDBRANCH   4   6
ENDBRANCH   3   4
ENDBRANCH   1   3
BRANCH   1   8
ATOM      8  C   UNL     1       3.145  -1.106  -0.368  1.00  0.00    -0.013 C 
BRANCH   8   9
ATOM      9  C   UNL     1       3.809  -1.984   0.681  1.00  0.00    -0.047 C 
BRANCH   9  10
ATOM     10  C   UNL     1       5.093  -2.554   0.099  1.00  0.00    -0.025 C 
BRANCH  10  11
ATOM     11  C   UNL     1       4.968  -4.018  -0.229  1.00  0.00     0.059 C 
ATOM     12  C   UNL     1       3.582  -4.481   0.167  1.00  0.00    -0.036 C 
ATOM     13  C   UNL     1       5.239  -4.264  -1.700  1.00  0.00    -0.036 C 
ATOM     14  O   UNL     1       5.898  -4.776   0.492  1.00  0.00    -0.390 OA
ENDBRANCH  10  11
ENDBRANCH   9  10
ENDBRANCH   8   9
ENDBRANCH   1   8
BRANCH   1  15
ATOM     15  C   UNL     1       0.980   0.069  -0.749  1.00  0.00     0.339 C 
ATOM     16  O   UNL     1       1.266  -0.161  -1.963  1.00  0.00    -0.249 OA
BRANCH  15  17
ATOM     17  O   UNL     1      -0.359   0.239  -0.378  1.00  0.00    -0.451 OA
BRANCH  17  18
ATOM     18  C   UNL     1      -1.276   0.531  -1.574  1.00  0.00     0.167 C 
ATOM     19  C   UNL     1      -0.538   1.916  -1.908  1.00  0.00     0.135 C 
ATOM     20  C   UNL     1      -2.489   1.361  -0.689  1.00  0.00     0.051 C 
ATOM     21  C   UNL     1      -0.372   2.519  -0.770  1.00  0.00    -0.022 C 
ATOM     22  C   UNL     1      -1.441   2.223   0.158  1.00  0.00     0.054 C 
ATOM     23  C   UNL     1      -2.099   3.553   0.510  1.00  0.00    -0.029 C 
ATOM     24  N   UNL     1      -1.137   1.743   1.421  1.00  0.00    -0.293 NA
ATOM     25  C   UNL     1      -1.072   4.003   1.552  1.00  0.00    -0.038 C 
ATOM     26  C   UNL     1      -0.149   2.797   1.742  1.00  0.00    -0.001 C 
BRANCH  19  27
ATOM     27  O   UNL     1      -0.296   2.262  -3.215  1.00  0.00    -0.497 OA
ATOM     28  C   UNL     1      -0.920   1.610  -4.295  1.00  0.00     0.077 C 
ENDBRANCH  19  27
BRANCH  20  29
ATOM     29  C   UNL     1      -2.653   0.156   0.343  1.00  0.00    -0.031 A 
ATOM     30  C   UNL     1      -3.436   0.291   1.477  1.00  0.00    -0.039 A 
ATOM     31  C   UNL     1      -2.864  -1.004  -0.394  1.00  0.00    -0.012 A 
ATOM     32  C   UNL     1      -4.390  -0.632   1.847  1.00  0.00    -0.012 A 
ATOM     33  C   UNL     1      -3.903  -1.882  -0.107  1.00  0.00     0.166 A 
ATOM     34  C   UNL     1      -4.758  -1.625   0.958  1.00  0.00     0.166 A 
ATOM     35  O   UNL     1      -4.543  -2.906  -0.814  1.00  0.00    -0.454 OA
ATOM     36  O   UNL     1      -5.998  -2.196   0.655  1.00  0.00    -0.454 OA
ATOM     37  C   UNL     1      -5.953  -2.767  -0.651  1.00  0.00     0.231 C 
BRANCH  30  38
ATOM     38  C   UNL     1      -3.455   1.523   2.293  1.00  0.00    -0.015 CG0
ATOM     39  G   UNL     1      -2.071   1.981   2.483  1.00  0.00     0.000 G0
ENDBRANCH  30  38
ENDBRANCH  20  29
BRANCH  24  40
ATOM     40  C   UNL     1      -2.071   1.981   2.483  1.00  0.00     0.003 CG0
ATOM     41  G   UNL     1      -3.455   1.523   2.293  1.00  0.00     0.000 G0
ENDBRANCH  24  40
ENDBRANCH  17  18
ENDBRANCH  15  17
ENDBRANCH   1  15
TORSDOF 11

