
     RDKit          3D

 19 21  0  0  0  0  0  0  0  0999 V2000
   -4.6729    1.1094    1.5008 N   0  0  0  0  0  0  0  0  0  0  0  0
   -3.7205    0.4410    0.6654 C   0  0  0  0  0  0  0  0  0  0  0  0
   -3.4351    0.9516   -0.5533 N   0  0  0  0  0  0  0  0  0  0  0  0
   -2.2075    0.8583   -1.1054 C   0  0  0  0  0  0  0  0  0  0  0  0
   -1.9630    1.1777   -2.4808 N   0  0  0  0  0  0  0  0  0  0  0  0
   -1.2623    0.1536   -0.3709 C   0  0  0  0  0  0  0  0  0  0  0  0
    0.0225    0.2131   -0.7380 N   0  0  0  0  0  0  0  0  0  0  0  0
    0.8862   -0.6743   -0.1866 C   0  0  0  0  0  0  0  0  0  0  0  0
    2.3086   -0.3384   -0.0400 C   0  0  0  0  0  0  0  0  0  0  0  0
    2.7059    0.3498    1.0927 C   0  0  0  0  0  0  0  0  0  0  0  0
    3.7161    1.3022    1.0602 C   0  0  0  0  0  0  0  0  0  0  0  0
    4.2617    1.6763   -0.1619 C   0  0  0  0  0  0  0  0  0  0  0  0
    4.1464    0.7479   -1.1893 C   0  0  0  0  0  0  0  0  0  0  0  0
    3.1237   -0.1831   -1.1526 C   0  0  0  0  0  0  0  0  0  0  0  0
    0.3643   -1.7872    0.4562 C   0  0  0  0  0  0  0  0  0  0  0  0
    1.2024   -2.9366    0.5058 N   0  0  0  0  0  0  0  0  0  0  0  0
   -0.8849   -1.7726    0.9825 N   0  0  0  0  0  0  0  0  0  0  0  0
   -1.6975   -0.7656    0.5762 C   0  0  0  0  0  0  0  0  0  0  0  0
   -2.8942   -0.5231    1.1391 N   0  0  0  0  0  0  0  0  0  0  0  0
  1  2  1  0
  2  3  2  0
  3  4  1  0
  4  5  1  0
  4  6  2  0
  6  7  1  0
  7  8  2  0
  8  9  1  0
  9 10  2  0
 10 11  1  0
 11 12  2  0
 12 13  1  0
 13 14  2  0
  8 15  1  0
 15 16  1  0
 15 17  2  0
 17 18  1  0
 18 19  2  0
 19  2  1  0
 18  6  1  0
 14  9  1  0
M  END
>  <zinc_id>  (1) 
ZINC000000120286

>  <smiles>  (1) 
Nc1nc(N)c2nc(-c3ccccc3)c(N)nc2n1

$$$$
